*Heading
** Job name: grasslDisk-nu01-b0 Model name: Model-grasslDisk-nu01-b0
*Preprint, echo=NO, model=NO, history=NO, contact=NO
**
*PARAMETER
**
*******************************************************************************
**  Preallocated array for Multiphysics-LDPM parameters                      **
**  1. basic LDPM [69 params]:     parameters props ID: 1-69                 **
**  2. time scaling [11 params]:   parameters props ID: 70-80                **
**  3. thermal [5 params]:         parameters props ID: 81-85                **
**  4. shrinkage [5 params]:       parameters props ID: 86-90                **
**  5. poroelasticity [10 params]: parameters props ID: 91-100               **
**  6. high-temp [30 params]:      parameters props ID: 101-130              **
**  7. hydration [30 params]:      parameters props ID: 131-160              **
**  8. aging [30 params]:          parameters props ID: 161-190              **
**  9. creep [20 params]:          parameters props ID: 191-210              **
**  10. evap-water [30 params]:    parameters props ID: 211-240              **
**  11. ASR [30 params]:           parameters props ID: 241-270              **
**                                                                           **
*******************************************************************************
**                              [Basic LDPM]                                 **
**  1-Phase: General LDPM,  2-Phase: Not Used,  3-Phase: ITZ Prop.           **
**                             props ID: 1-23                                **
*******************************************************************************
**
Density1                            = 2.46e-9
ElasticModulus1                     = 46480
Alpha1                              = 0.5455
TensileStrength1                    = 2.65
TensileCharacteristicLength1        = 200
ShearStrengthRatio1                 = 4.1
SofteningExponent1                  = 0.2
CompressiveYieldingStrength1        = 100
InitialHardeningModulusRatio1       = 0.4
TransitionalStrainRatio1            = 4
DeviatoricStrainThresholdRatio1     = 1
DeviatoricDamageParameter1          = 5
InitialFriction1                    = 0.2
AsymptoticFriction1                 = 0
TransitionalStress1                 = 600
DensificationRatio1                 = 1.0
VolumetricDeviatoricCoupling1       = 0
TensileUnloading1                   = 0.0
ShearUnloading1                     = 0.0
CompressiveUnloading1               = 0.0
ShearSoftening1                     = 0.0
FinalHardeningModulusRatio1         = 0.1
ElasticAnalysisFlag1                = 1.0
**
*******************************************************************************
**                              [Basic LDPM]                                 **
**  1-Phase: Not Used,  2-Phase: Binder Prop.,  3-Phase: Binder Prop.        **
**                             props ID: 24-46                               **
*******************************************************************************
**
Density2                        =0
ElasticModulus2                 =0
Alpha2                          =0
TensileStrength2                =0
TensileCharacteristicLength2    =0
ShearStrengthRatio2             =0
SofteningExponent2              =0
CompressiveYieldingStrength2    =0
InitialHardeningModulusRatio2   =0
TransitionalStrainRatio2        =0
DeviatoricStrainThresholdRatio2 =0
DeviatoricDamageParameter2      =0
InitialFriction2                =0
AsymptoticFriction2             =0
TransitionalStress2             =0
DensificationRatio2             =0
VolumetricDeviatoricCoupling2   =0
TensileUnloading2               =0
ShearUnloading2                 =0
CompressiveUnloading2           =0
ShearSoftening2                 =0
FinalHardeningModulusRatio2     =0
ElasticAnalysisFlag2            =0
**
*******************************************************************************
**                              [Basic LDPM]                                 **
**  1-Phase: Not Used,  2-Phase: Aggregate Prop.,  3-Phase: Aggregate Prop.  **
**                             props ID: 47-69                               **
*******************************************************************************
**
Density3                        =0
ElasticModulus3                 =0
Alpha3                          =0
TensileStrength3                =0
TensileCharacteristicLength3    =0
ShearStrengthRatio3             =0
SofteningExponent3              =0
CompressiveYieldingStrength3    =0
InitialHardeningModulusRatio3   =0
TransitionalStrainRatio3        =0
DeviatoricStrainThresholdRatio3 =0
DeviatoricDamageParameter3      =0
InitialFriction3                =0
AsymptoticFriction3             =0
TransitionalStress3             =0
DensificationRatio3             =0
VolumetricDeviatoricCoupling3   =0
TensileUnloading3               =0
ShearUnloading3                 =0
CompressiveUnloading3           =0
ShearSoftening3                 =0
FinalHardeningModulusRatio3     =0
ElasticAnalysisFlag3            =0
**
**
*******************************************************************************
**                         [Time scaling]                                    **
**                        props ID: 70-80                                    **
*******************************************************************************
**
TimeScalingFlag                    = 1.0
TimeScalingFactor1                 = 9.0e6
TimeScalingFactor2                 = 0.0
TimeScalingFactor3                 = 0.0
TimeScalingFactor4                 = 0.0
TimeScalingFactor5                 = 0.0
**
TerminalTimeStep1                  = 0.0
TerminalTimeStep2                  = 0.0
TerminalTimeStep3                  = 0.0
TerminalTimeStep4                  = 0.0
TerminalTimeStep5                  = 0.0
**
*******************************************************************************
**                          [Thermal Model]                                  **
**                          props ID: 81-85                                  **
*******************************************************************************
**
ThermalStrainFlag                  = 0.0
ThermalCoefficent                  = 7.0e-6
LITSPoisson                        = 0.0
LITSCoefA                          = 0.0004
LITSCoefB                          = 0.001
**
*******************************************************************************
**                          [Shrinkage Model]                                **
**                           props ID: 86-90                                 **
*******************************************************************************
**
ShrinkageStrainFlag                = 0.0
ShrinkageCoefficent                = 1.0
ShrinkageParam2                    = 0.0
ShrinkageParam3                    = 0.0
ShrinkageParam4                    = 0.0
**
*******************************************************************************
**                          [Poroelasticity]                                 **
**                          props ID: 91-100                                 **
*******************************************************************************
**
ImposedStressFlag                  = 1.0
BiotCoefficient                    = 1.0
PoroElasParam2                     = 0.0
PoroElasParam3                     = 0.0
PoroElasParam4                     = 0.0
PoroElasParam5                     = 0.0
PoroElasParam6                     = 0.0
PoroElasParam7                     = 0.0
PoroElasParam8                     = 0.0
PoroElasParam9                     = 0.0
**
*******************************************************************************
**                      [High-temperature degradation]                       **
**                          props ID: 101-122                                **
*******************************************************************************
**
HTDegradationFlag                  = 0.0
**
E0startT                           = 100.0
E0meltT                            = 700.0
E0nd                               = 0.2
ftstartT                           = 220.0
ftmeltT                            = 1000.0
ftnd                               = 1.4
fsstartT                           = 50.0
fsmeltT                            = 1200.0
fsnd                               = -0.6
fcstartT                           = 300.0
fcmeltT                            = 1000.0
fcnd                               = 0.2
sf0startT                          = 300.0
sf0meltT                           = 1000.0
sf0nd                              = 0.2
**
HighTempParam16                    = 0.0
HighTempParam17                    = 0.0
HighTempParam18                    = 0.0
HighTempParam19                    = 0.0
HighTempParam20                    = 0.0
HighTempParam21                    = 0.0
*******************************************************************************
**                      [High-temperature DTemPor3]                          **
**                          props ID: 123-130                                **
*******************************************************************************
**
TemPorFlag                         = 0.0
WatContent                         = 0.0
CemContent                         = 0.0
InitialWe0                         = 0.0
HydrualicCond                      = 0.0
TempOnHC                           = 0.0
HeatCapacity                       = 0.0
ThermalCond                        = 0.0
**
*******************************************************************************
**               [Hydration and silica fume reactions]                       **
**   props ID: 131-Flag,132-148[basic],149-152[ONIX],153-155[HTC],156-160    **
*******************************************************************************
**
HydrationFlag                      = 0.0
WatertoCementRatio                 = 0.5
CementContent                      = 4.2e-10
HydrationReferenceTemperature      = 293.15
CementHydrationAc1                 = 4.53e-2
CementHydrationAc2                 = 1.0e-2
CementHydrationEtac                = 8.
CementHydrationEnergy              = 4.6e7
CementHydrationEnthalpy            = 5.2e11
InitialHydrationDegree             = 0.0
SilicaFumeContent                  = 0.0
SFReactionReferenceTemperature     = 293.15
SilicaFumeReactionAs1              = 1.1e-5
SilicaFumeReactionAs2              = 1.0e-6
SilicaFumeReactionEtac             = 9.5
SilicaFumeReactionEnergy           = 8.0e7
SilicaFumeReactionEnthalpy         = 7.8e11
InitialSFReactionDegree            = 0.0
**
SaturatedInfinityalphac            = 0.8888888
CementHydrationZeta                = 5.
SaturatedInfinityalphas            = 0.9999999
SilicaFumeReactionZeta             = 0.9
**
CementHydrationHumiditya           = 5.5
CementHydrationHumidityb           = 4.0
SilicaFumeEfficiency               = 0.9
**
HydrationParam25                   = 0.0
HydrationParam26                   = 0.0
HydrationParam27                   = 0.0
HydrationParam28                   = 0.0
HydrationParam29                   = 0.0
**
*******************************************************************************
**		               [Aging model]                                          **
**		               props ID: 161-190                                      **
*******************************************************************************
**
AgingFlag                          = 0.0
AgeingAlpha0                       = 0.15
AgeingALambda                      = 0.5
AgeingReferenceTemperature         = 293.15
AgeingTemperatureExponent          = 0.8
InitialAgingDegree                 = 0.0
RelativeInitialModulus             = 0.2
ModulusAgingCoefficient            = 1.16
RelativeInitialStrengtht           = 0.3
StrengthtAgingCoefficient          = 1.2
RelativeInitialStrengthc0          = 0.3
Strengthc0AgingCoefficient         = 1.2
RelativeInitialStrengthN0          = 0.3
StrengthN0AgingCoefficient         = 1.2
RelativeInitialRst                 = 0.4
RstAgingCoefficient                = 1.8
LtAgingParameter                   = 3.57
AgingParam17                       = 0.0
AgingParam18                       = 0.0
AgingParam19                       = 0.0
AgingParam20                       = 0.0
AgingParam21                       = 0.0
AgingParam22                       = 0.0
AgingParam23                       = 0.0
AgingParam24                       = 0.0
AgingParam25                       = 0.0
AgingParam26                       = 0.0
AgingParam27                       = 0.0
AgingParam28                       = 0.0
AgingParam29                       = 0.0
**
*******************************************************************************
**		               [Creep Model]                                          **
**		               props ID: 191-210                                      **
*******************************************************************************
**
CreepModelFlag                     = 0.0
MesoscaleInstantaneousComplianceq1 = 1.0
ViscoelasticXi1                    = 1.0
ViscoelasticN                      = 1.0
PurelyViscousKappa0                = 1.0
PurelyViscousKappa1                = 1.0
PurelyViscousXi2                   = 1.0
InitialRealTime                    = 3600.0
InitialMicroprestress              = 1.0
CreepTau0                          = -4.0
NKelvinChain                       = 10.0
CreepA0                            = 0.0
A0IntegrationTime                  = 10.0
DeltaTau                           = 0.0
CreepParam14                       = 0.0
CreepParam15                       = 0.0
CreepParam16                       = 0.0
CreepParam17                       = 0.0
CreepParam18                       = 0.0
CreepParam19                       = 0.0
**
*******************************************************************************
**		               [Evaporable water model                                **
**		               props ID: 211-240                                      **
*******************************************************************************
**
EvapWaterFlag                      = 0.0
EvapWaterParam1                    = 1.0
EvapWaterParam2		           = 0.0
EvapWaterParam3		           = 0.0
EvapWaterParam4		           = 0.0
EvapWaterParam5		           = 0.0
EvapWaterParam6		           = 0.0
EvapWaterParam7		           = 0.0
EvapWaterParam8		           = 0.0
EvapWaterParam9                    = 0.0
EvapWaterParam10                   = 0.0
EvapWaterParam11                   = 0.0
EvapWaterParam12                   = 0.0
EvapWaterParam13                   = 0.0
EvapWaterParam14                   = 0.0
EvapWaterParam15                   = 0.0
EvapWaterParam16                   = 0.0
EvapWaterParam17                   = 0.0
EvapWaterParam18                   = 0.0
EvapWaterParam19                   = 0.0
EvapWaterParam20                   = 0.0
** ... 9 like lines cut
**
*******************************************************************************
**		               [Alkali silica reaction Model]                         **
**		               props ID: 241-270                                      **
*******************************************************************************
**
AlkaliSilicaReactionFlag           = 0.0
ASRReferenceTemperature            = 1.0
AlkaliDiffusionCoeffiecentCz10     = 1.0
AlkaliDiffusionRatioCz1OverCz0     = 1.0
AlkaliDiffusionExponentnZ          = 1.0
AlkaliDiffusionEnergyEag           = 1.0
AlkaliContentCoefficientkappaa     = 1.0
SilicaContentCs                    = 1.0
BulkDiffusionCoefficientCw10       = 1.0
BulkDiffusionRatioCw1OverCw0       = 1.0
BulkDiffusionExponentnw            = 1.0
BulkDiffusionEnergyEaw             = 1.0
WaterImbibitionCoefficientbetaw10  = 1.0
TemperatureDependentkappaT         = 1.0
HumidityDependentkappah            = 1.0
ASRParam15                         = 0.0
ASRParam16                         = 0.0
ASRParam17                         = 0.0
ASRParam18                         = 0.0
ASRParam19                         = 0.0
ASRParam20                         = 0.0
ASRParam21                         = 0.0
ASRParam22                         = 0.0
ASRParam23                         = 0.0
ASRParam24                         = 0.0
ASRParam25                         = 0.0
ASRParam26                         = 0.0
ASRParam27                         = 0.0
ASRParam28                         = 0.0
ASRParam29                         = 0.0
**
**
*******************************************************************************
**                             Other parameters                              **
**                              jprops ID: 1                                 **
*******************************************************************************
**
NumberOfUserElement                =24094
**
** PARTS
**
*Part, name=grasslDisk-nu01-b0
*USER ELEMENT, NODES=4, TYPE=VU4, COORDINATES=3, variables=900, PROPERTIES=270, I PROPERTIES=1, INTEGRATION=3
1, 2, 3, 4, 5, 6
*Node
1, 0.0, 100.0, 725.0
2, 0.0, 100.0, 100.0
3, 0.0, 0.0, 725.0
4, 0.0, 0.0, 100.0
5, 39.938626258002, 100.0, 723.89909941415
6, 79.755960220708, 100.0, 720.59974105551
7, 119.33107795353, 100.0, 715.11194496697
8, 158.54379112462, 100.0, 707.45237740489
9, 197.27501201287, 100.0, 697.64430022421
10, 235.4071151734, 100.0, 685.71750023296
11, 272.82429466218, 100.0, 671.70819873073
12, 309.41291573489, 100.0, 655.65894150574
13, 345.06185995188, 100.0, 637.6184696247
14, 379.66286264121, 100.0, 617.64157140779
15, 413.11084169494, 100.0, 595.7889160383
16, 445.30421670001, 100.0, 572.12686931239
17, 476.14521743461, 100.0, 546.72729208825
18, 505.54018079315, 100.0, 519.66732204713
19, 533.39983523802, 100.0, 491.02913942866
20, 559.63957191433, 100.0, 460.89971745223
** ... 5364 like lines cut
*Element, type=VU4, elset=AllEls
1, 162, 163, 2386, 5049
2, 1590, 2074, 2547, 5089
3, 221, 2371, 3061, 3377
4, 2594, 1997, 5236, 5057
5, 1119, 306, 5088, 3299
6, 550, 1276, 1423, 4752
7, 2780, 1788, 3243, 3226
8, 4970, 4661, 5296, 4208
9, 2135, 5163, 4755, 3343
10, 3677, 2885, 3671, 4168
11, 2762, 1780, 3797, 3843
12, 3731, 4010, 3573, 3502
13, 2594, 5236, 4085, 5057
14, 2335, 1896, 3857, 4859
15, 540, 1060, 4477, 4989
16, 1209, 1026, 4062, 3382
17, 4632, 1403, 3940, 3503
18, 2434, 2670, 3348, 3613
19, 373, 1311, 4009, 4791
20, 2048, 1703, 3715, 3693
** ... 24074 like lines cut
*Element, type=S3R
24095,  118, 3161, 3170
24096,  254, 3178, 3165
24097,  256,  255, 3156
24098, 3176,  256, 3156
24099,  128,  129, 3175
24100,  126,  127, 3166
24101, 3184,  130,  131
24102,  120,  121, 3157
24103, 3167,  132,    2
24104,  118,  119, 3161
24105,  126, 3177,  125
24106, 3151,  122,  123
24107, 3152, 3174, 3145
24108,  119, 3181, 3161
24109,  128, 3155,  127
24110, 3159, 3171, 3144
24111, 3156, 3150, 3155
24112,  132, 3167, 3163
24113, 3145, 3174, 3159
24114, 3148, 3153, 3182
** ... 102 like lines cut
*UEL PROPERTY, ELSET=AllEls
<Density1>, <ElasticModulus1>, <Alpha1>, <TensileStrength1>, <TensileCharacteristicLength1>, <ShearStrengthRatio1>, <SofteningExponent1>, <CompressiveYieldingStrength1>,
<InitialHardeningModulusRatio1>, <TransitionalStrainRatio1>, <DeviatoricStrainThresholdRatio1>, <DeviatoricDamageParameter1>, <InitialFriction1>, <AsymptoticFriction1>, <TransitionalStress1>, <DensificationRatio1>,
<VolumetricDeviatoricCoupling1>, <TensileUnloading1>, <ShearUnloading1>, <CompressiveUnloading1>, <ShearSoftening1>, <FinalHardeningModulusRatio1>, <ElasticAnalysisFlag1>, <Density2>,
<ElasticModulus2>, <Alpha2>, <TensileStrength2>, <TensileCharacteristicLength2>, <ShearStrengthRatio2>, <SofteningExponent2>, <CompressiveYieldingStrength2>, <InitialHardeningModulusRatio2>,
<TransitionalStrainRatio2>, <DeviatoricStrainThresholdRatio2>, <DeviatoricDamageParameter2>,  <InitialFriction2>, <AsymptoticFriction2>, <TransitionalStress2>, <DensificationRatio2>, <VolumetricDeviatoricCoupling2>,
<TensileUnloading2>, <ShearUnloading2>, <CompressiveUnloading2>, <ShearSoftening2>, <FinalHardeningModulusRatio2>, <ElasticAnalysisFlag2>, <Density3>, <ElasticModulus3>,
<Alpha3>, <TensileStrength3>, <TensileCharacteristicLength3>, <ShearStrengthRatio3>, <SofteningExponent3>, <CompressiveYieldingStrength3>, <InitialHardeningModulusRatio3>, <TransitionalStrainRatio3>,
<DeviatoricStrainThresholdRatio3>, <DeviatoricDamageParameter3>, <InitialFriction3>, <AsymptoticFriction3>, <TransitionalStress3>, <DensificationRatio3>, <VolumetricDeviatoricCoupling3>, <TensileUnloading3>,
<ShearUnloading3>, <CompressiveUnloading3>, <ShearSoftening3>, <FinalHardeningModulusRatio3>, <ElasticAnalysisFlag3>, <TimeScalingFlag>, <TimeScalingFactor1>, <TimeScalingFactor2>,
<TimeScalingFactor3>, <TimeScalingFactor4>, <TimeScalingFactor5>, <TerminalTimeStep1>, <TerminalTimeStep2>, <TerminalTimeStep3>, <TerminalTimeStep4>, <TerminalTimeStep5>,
<ThermalStrainFlag>, <ThermalCoefficent>, <LITSPoisson>, <LITSCoefA>, <LITSCoefB>, <ShrinkageStrainFlag>, <ShrinkageCoefficent>, <ShrinkageParam2>,
<ShrinkageParam3>, <ShrinkageParam4>, <ImposedStressFlag>, <BiotCoefficient>, <PoroElasParam2>, <PoroElasParam3>, <PoroElasParam4>, <PoroElasParam5>,
<PoroElasParam6>, <PoroElasParam7>, <PoroElasParam8>, <PoroElasParam9>, <HTDegradationFlag>, <E0startT>, <E0meltT>, <E0nd>,
<ftstartT>, <ftmeltT>, <ftnd>, <fsstartT>, <fsmeltT>, <fsnd>, <fcstartT>, <fcmeltT>,
<fcnd>, <sf0startT>, <sf0meltT>, <sf0nd>, <HighTempParam16>, <HighTempParam17>, <HighTempParam18>, <HighTempParam19>,
<HighTempParam20>,<HighTempParam21>,<TemPorFlag>, <WatContent>, <CemContent>,<InitialWe0>, <HydrualicCond>, <TempOnHC>,
<HeatCapacity>,<ThermalCond>,<HydrationFlag>, <WatertoCementRatio>, <CementContent>, <HydrationReferenceTemperature>, <CementHydrationAc1>, <CementHydrationAc2>,
<CementHydrationEtac>, <CementHydrationEnergy>, <CementHydrationEnthalpy>, <InitialHydrationDegree>, <SilicaFumeContent>, <SFReactionReferenceTemperature>, <SilicaFumeReactionAs1>, <SilicaFumeReactionAs2>,
<SilicaFumeReactionEtac>, <SilicaFumeReactionEnergy>, <SilicaFumeReactionEnthalpy>, <InitialSFReactionDegree>, <SaturatedInfinityalphac>, <CementHydrationZeta>, <SaturatedInfinityalphas>, <SilicaFumeReactionZeta>,
<CementHydrationHumiditya>, <CementHydrationHumidityb>, <SilicaFumeEfficiency>, <HydrationParam25>, <HydrationParam26>, <HydrationParam27>, <HydrationParam28>, <HydrationParam29>,
<AgingFlag>, <AgeingAlpha0>, <AgeingALambda>, <AgeingReferenceTemperature>, <AgeingTemperatureExponent>, <InitialAgingDegree>, <RelativeInitialModulus>, <ModulusAgingCoefficient>,
<RelativeInitialStrengtht>,<StrengthtAgingCoefficient>, <RelativeInitialStrengthc0>, <Strengthc0AgingCoefficient>, <RelativeInitialStrengthN0>, <StrengthN0AgingCoefficient>, <RelativeInitialRst>, <RstAgingCoefficient>,
<LtAgingParameter>, <AgingParam17>, <AgingParam18>, <AgingParam19>, <AgingParam20>, <AgingParam21>, <AgingParam22>, <AgingParam23>,
<AgingParam24>, <AgingParam25>, <AgingParam26>, <AgingParam27>, <AgingParam28>, <AgingParam29>, <CreepModelFlag>, <MesoscaleInstantaneousComplianceq1>,
<ViscoelasticXi1>, <ViscoelasticN>, <PurelyViscousKappa0>, <PurelyViscousKappa1>, <PurelyViscousXi2>, <InitialRealTime>, <InitialMicroprestress>, <CreepTau0>,
<NKelvinChain>, <CreepA0>, <A0IntegrationTime>, <DeltaTau>, <CreepParam14>, <CreepParam15>, <CreepParam16>, <CreepParam17>,
<CreepParam18>, <CreepParam19>, <EvapWaterFlag>, <EvapWaterParam1>, <EvapWaterParam2>, <EvapWaterParam3>, <EvapWaterParam4>, <EvapWaterParam5>,
<EvapWaterParam6>, <EvapWaterParam7>, <EvapWaterParam8>, <EvapWaterParam9>, <EvapWaterParam10>, <EvapWaterParam11>, <EvapWaterParam12>, <EvapWaterParam13>,
<EvapWaterParam14>, <EvapWaterParam15>, <EvapWaterParam16>, <EvapWaterParam17>, <EvapWaterParam18>, <EvapWaterParam19>, <EvapWaterParam20>, <EvapWaterParam21>,
<EvapWaterParam22>, <EvapWaterParam23>, <EvapWaterParam24>, <EvapWaterParam25>, <EvapWaterParam26>, <EvapWaterParam27>, <EvapWaterParam28>, <EvapWaterParam29>,
<AlkaliSilicaReactionFlag>, <ASRReferenceTemperature>, <AlkaliDiffusionCoeffiecentCz10>, <AlkaliDiffusionRatioCz1OverCz0>, <AlkaliDiffusionExponentnZ>, <AlkaliDiffusionEnergyEag>, <AlkaliContentCoefficientkappaa>,<SilicaContentCs>,
<BulkDiffusionCoefficientCw10>, <BulkDiffusionRatioCw1OverCw0>, <BulkDiffusionExponentnw>, <BulkDiffusionEnergyEaw>, <WaterImbibitionCoefficientbetaw10>, <TemperatureDependentkappaT>, <HumidityDependentkappah>, <ASRParam15>,
<ASRParam16>, <ASRParam17>, <ASRParam18>, <ASRParam19>, <ASRParam20>, <ASRParam21>, <ASRParam22>, <ASRParam23>,
<ASRParam24>, <ASRParam25>, <ASRParam26>, <ASRParam27>, <ASRParam28>, <ASRParam29>, <NumberOfUserElement>
*Elset, elset=InnerSkin, internal, generate
 24095,  24216,      1
*Surface, type=ELEMENT, name=APPLYPRESSURE
InnerSkin, SPOS
** Section: Section-1-InnerSkin
*Shell Section, elset=InnerSkin,material=Skin,offset=SNEG
5, 5
*End Part
**
**
** ASSEMBLY
**
*Assembly, name=Assembly
**
*Instance, name=grasslDisk-nu01-b0-1, part=grasslDisk-nu01-b0
*End Instance
**
*Nset, nset=AllLDPMnodes, instance=grasslDisk-nu01-b0-1, generate
1, 5384, 1
*NSET, NSET=InnerNodes_LDPM, instance=grasslDisk-nu01-b0-1
2,4,121,123,124,125,126,127,128,129,249,251,252,253,254,
255,256,257,263,264,3142,3143,3144,3145,3147,3149,3153,3155,3157,3158,
3162,3163,3165,3169,3170,3171,3172,3173,3174,3175,3176,3178,3179,3181,3182,
3183,3184,
*NSET, NSET=OuterNodes_LDPM, instance=grasslDisk-nu01-b0-1
1,3,9,10,14,16,17,18,20,21,23,24,25,30,31,
32,33,34,35,40,41,42,44,45,47,48,49,51,52,56,
61,66,67,71,74,75,77,78,80,81,82,87,88,89,90,
91,92,97,98,99,101,102,104,105,106,108,112,113,137,138,
142,144,145,146,148,149,151,152,153,158,159,160,161,162,163,
168,169,170,172,173,175,176,177,179,180,184,189,194,195,199,
202,203,205,206,208,209,210,215,216,217,218,219,220,225,226,
227,229,230,232,233,234,236,240,241,261,262,2849,2850,2851,2852,
2854,2856,2859,2860,2862,2865,2870,2872,2874,2884,2885,2890,2891,2892,2893,
2894,2895,2896,2897,2898,2900,2903,2904,2908,2909,2910,2912,2915,2916,2919,
2920,2924,2925,2926,2927,2929,2932,2935,2937,2938,2939,2941,2942,2944,2945,
2947,2949,2950,2951,2952,2955,2956,2957,2958,2960,2962,2963,2964,2968,2969,
2971,2975,2977,2978,2979,2982,2985,2988,2990,2992,2993,2996,2997,2998,2999,
3000,3002,3005,3007,3009,3013,3016,3017,3018,3020,3021,3023,3025,3031,3033,
3035,3036,3037,3038,3039,3040,3041,3043,3044,3045,3047,3053,3054,3056,3059,
3062,3063,3064,3067,3069,3072,3076,3077,3080,3081,3084,3086,3087,3088,3091,
3092,3096,3098,3099,3103,3104,3105,3107,3108,3110,3111,3112,3113,3114,3115,
3116,3117,3118,3119,3120,3121,3123,3125,3127,3129,3130,3134,3135,3136,3139,
*NSET, NSET=TopNodes_LDPM, instance=grasslDisk-nu01-b0-1
1,2,5,6,7,8,9,10,11,12,13,14,15,16,17,
18,19,20,21,22,23,24,25,26,27,28,29,30,31,32,
33,34,35,36,37,38,39,40,41,42,43,44,45,46,47,
48,49,50,51,52,53,54,55,56,57,58,59,60,61,62,
63,64,65,66,67,68,69,70,71,72,73,74,75,76,77,
78,79,80,81,82,83,84,85,86,87,88,89,90,91,92,
93,94,95,96,97,98,99,100,101,102,103,104,105,106,107,
108,109,110,111,112,113,114,115,116,117,118,119,120,121,122,
123,124,125,126,127,128,129,130,131,132,265,266,267,268,269,
270,271,272,273,274,275,276,277,278,279,280,281,282,283,284,
285,286,287,288,289,290,291,292,293,294,295,296,297,298,299,
300,301,302,303,304,305,306,307,308,309,310,311,312,313,314,
315,316,317,318,319,320,321,322,323,324,325,326,327,328,329,
330,331,332,333,334,335,336,337,338,339,340,341,342,343,344,
345,346,347,348,349,350,351,352,353,354,355,356,357,358,359,
360,361,362,363,364,365,366,367,368,369,370,371,372,373,374,
375,376,377,378,379,380,381,382,383,384,385,386,387,388,389,
390,391,392,393,394,395,396,397,398,399,400,401,402,403,404,
405,406,407,408,409,410,411,412,413,414,415,416,417,418,419,
420,421,422,423,424,425,426,427,428,429,430,431,432,433,434,
** ... 75 like lines cut
*NSET, NSET=BottomNodes_LDPM, instance=grasslDisk-nu01-b0-1
3,4,133,134,135,136,137,138,139,140,141,142,143,144,145,
146,147,148,149,150,151,152,153,154,155,156,157,158,159,160,
161,162,163,164,165,166,167,168,169,170,171,172,173,174,175,
176,177,178,179,180,181,182,183,184,185,186,187,188,189,190,
191,192,193,194,195,196,197,198,199,200,201,202,203,204,205,
206,207,208,209,210,211,212,213,214,215,216,217,218,219,220,
221,222,223,224,225,226,227,228,229,230,231,232,233,234,235,
236,237,238,239,240,241,242,243,244,245,246,247,248,249,250,
251,252,253,254,255,256,257,258,259,260,1557,1558,1559,1560,1561,
1562,1563,1564,1565,1566,1567,1568,1569,1570,1571,1572,1573,1574,1575,1576,
1577,1578,1579,1580,1581,1582,1583,1584,1585,1586,1587,1588,1589,1590,1591,
1592,1593,1594,1595,1596,1597,1598,1599,1600,1601,1602,1603,1604,1605,1606,
1607,1608,1609,1610,1611,1612,1613,1614,1615,1616,1617,1618,1619,1620,1621,
1622,1623,1624,1625,1626,1627,1628,1629,1630,1631,1632,1633,1634,1635,1636,
1637,1638,1639,1640,1641,1642,1643,1644,1645,1646,1647,1648,1649,1650,1651,
1652,1653,1654,1655,1656,1657,1658,1659,1660,1661,1662,1663,1664,1665,1666,
1667,1668,1669,1670,1671,1672,1673,1674,1675,1676,1677,1678,1679,1680,1681,
1682,1683,1684,1685,1686,1687,1688,1689,1690,1691,1692,1693,1694,1695,1696,
1697,1698,1699,1700,1701,1702,1703,1704,1705,1706,1707,1708,1709,1710,1711,
1712,1713,1714,1715,1716,1717,1718,1719,1720,1721,1722,1723,1724,1725,1726,
** ... 75 like lines cut
*NSET,NSET=MonitoringNodes-1_LDPM, instance=grasslDisk-nu01-b0-1
738,872,873,1294,1295,1353,1354,1366,2030,2164,2165,2586,2587,2645,2646,
2658,3245,3514,3520,3575,3705,3728,3762,3799,3861,3961,3975,4209,4236,4313,
4317,4349,4478,4589,4770,5148,5365,
*NSET,NSET=MonitoringNodes-2_LDPM, instance=grasslDisk-nu01-b0-1
520,524,628,629,904,978,1194,1380,1812,1816,1920,1921,2196,2270,2486,
2672,3303,3351,3401,3526,3587,3611,3661,3815,3941,3981,4018,4136,4352,4420,
4586,4717,4855,4872,4890,4901,4910,4911,4968,5009,5064,5153,5282,5368,
*NSET,NSET=MonitoringNodes-3_LDPM, instance=grasslDisk-nu01-b0-1
376,377,378,433,434,436,437,440,442,915,944,972,974,998,1020,
1021,1084,1085,1668,1669,1670,1725,1726,1728,1729,1732,1734,2207,2236,2264,
2266,2290,2312,2313,2376,2377,3249,3259,3273,3319,3346,3363,3390,3442,3487,
3546,3568,3641,3828,3887,3920,4104,4363,4499,4580,4779,4807,4844,5100,5111,
5128,5181,5209,5256,5261,5361,
*NSET,NSET=MonitoringNodes-4_LDPM, instance=grasslDisk-nu01-b0-1
338,339,340,341,770,773,780,781,803,863,922,924,1391,1392,1630,
1631,1632,1633,2062,2065,2072,2073,2095,2155,2214,2216,2683,2684,3197,3300,
3400,3427,3485,3710,3789,3881,3907,4079,4183,4216,4316,4406,4415,4432,4440,
4455,4542,4615,4647,4893,4929,4998,5072,5190,5337,
*NSET,NSET=MonitoringNodes-5_LDPM, instance=grasslDisk-nu01-b0-1
385,387,636,637,677,678,698,776,777,797,798,834,835,836,878,
1088,1089,1128,1259,1335,1441,1442,1545,1547,1677,1679,1928,1929,1969,1970,
1990,2068,2069,2089,2090,2126,2127,2128,2170,2380,2381,2420,2551,2627,2733,
2734,2837,2839,3248,3320,3350,3359,3423,3434,3451,3456,3501,3542,3549,3600,
3697,3730,3759,3824,3872,3883,3984,3994,4007,4097,4103,4131,4238,4258,4397,
4494,4584,4599,4643,4719,4769,4843,4896,4992,5001,5150,5179,5295,5323,
*NSET,NSET=MonitoringNodes-6_LDPM, instance=grasslDisk-nu01-b0-1
304,305,310,311,312,313,314,547,548,751,753,821,959,960,1060,
1061,1090,1376,1377,1396,1397,1407,1470,1471,1472,1534,1596,1597,1602,1603,
1604,1605,1606,1839,1840,2043,2045,2113,2251,2252,2352,2353,2382,2668,2669,
2688,2689,2699,2762,2763,2764,2826,3209,3256,3274,3280,3284,3335,3404,3528,
3563,3613,3615,3691,3703,3714,3810,3950,3954,4050,4071,4134,4161,4192,4199,
4284,4292,4304,4321,4335,4365,4367,4390,4436,4463,4479,4515,4529,4553,4629,
4674,4716,4743,4771,4786,4824,4830,4852,4883,4884,4902,5034,5042,5078,5120,
5140,5174,5225,5273,5294,5304,5313,5339,5351,5372,
*NSET,NSET=MonitoringNodes-7_LDPM, instance=grasslDisk-nu01-b0-1
348,349,350,352,373,390,391,596,654,655,658,712,728,730,819,
823,850,851,865,866,871,882,883,939,949,1240,1241,1332,1360,1413,
1420,1444,1473,1484,1505,1510,1511,1518,1544,1640,1641,1642,1644,1665,1682,
1683,1888,1946,1947,1950,2004,2020,2022,2111,2115,2142,2143,2157,2158,2163,
2174,2175,2231,2241,2532,2533,2624,2652,2705,2712,2736,2765,2776,2797,2802,
2803,2810,2836,3252,3255,3265,3305,3307,3309,3325,3336,3473,3474,3531,3536,
3582,3656,3665,3675,3676,3702,3712,3992,4011,4037,4110,4128,4232,4269,4336,
4341,4385,4398,4437,4452,4545,4549,4569,4581,4600,4642,4659,4666,4724,4744,
4854,4860,4861,4905,4921,4950,5046,5074,5117,5212,5242,5259,5267,5354,
*NSET,NSET=MonitoringNodes-8_LDPM, instance=grasslDisk-nu01-b0-1
308,309,322,323,573,574,575,578,582,621,622,623,646,647,670,
676,682,683,684,699,701,705,706,716,717,718,719,879,880,885,
927,928,935,1040,1044,1045,1046,1190,1210,1226,1331,1341,1342,1425,1453,
1463,1464,1502,1600,1601,1614,1615,1865,1866,1867,1870,1874,1913,1914,1915,
1938,1939,1962,1968,1974,1975,1976,1991,1993,1997,1998,2008,2009,2010,2011,
2171,2172,2177,2219,2220,2227,2332,2336,2337,2338,2482,2502,2518,2623,2633,
2634,2717,2745,2755,2756,2794,3193,3213,3225,3237,3262,3295,3341,3358,3367,
3410,3452,3467,3499,3599,3643,3654,3716,3719,3753,3755,3767,3768,3775,3812,
3832,3834,3874,3875,3914,3916,3945,3956,3963,3966,3998,4017,4049,4057,4059,
4069,4078,4085,4093,4112,4142,4151,4227,4266,4314,4381,4427,4451,4458,4469,
4500,4514,4537,4583,4622,4636,4648,4656,4680,4691,4729,4782,4819,4841,4849,
4850,4882,4931,4934,4958,4973,4988,5036,5054,5057,5062,5094,5110,5130,5137,
5141,5200,5206,5233,5241,5258,5280,5301,5317,5335,
*Surface, type=NODE, name=grasslDisk_inner_CNS_, internal
InnerNodes_LDPM
*End Assembly
*Amplitude, name=Amp-1, time=TOTAL TIME
0., 0., 1.0e-2, 1., 5.0e-2, 1.
**
** MATERIALS
**
*Material, name=Skin
*Density
<Density1>,
*Elastic
37184.0, 0.1
** 
** BOUNDARY CONDITIONS
** 
** Name: BC-Fixed Type: Displacement/Rotation
*Boundary
TopNodes_LDPM, 2, 2
TopNodes_LDPM, 4, 6
BottomNodes_LDPM, 2, 2
BottomNodes_LDPM, 4, 6
** ----------------------------------------------------------------
**
** STEP: Step-1
**
*Step, name=Step-1, nlgeom=NO
*Dynamic, Explicit, DIRECT USER CONTROL
5.0e-7, 5.0e-2
*Bulk Viscosity
0.06, 1.2
**
** LOADS
**
** Name: SURFFORCE-1   Type: Pressure
*Dsload, amplitude=Amp-1
grasslDisk-nu01-b0-1.APPLYPRESSURE, P, 50.
**
** OUTPUT REQUESTS
**
** FIELD OUTPUT: F-Output-1
**
*Output, Field, Var=Preselect, Number interval=100
*Node Output, Nset=AllLDPMNodes
U, RF
*End Step
