*Heading
** Job name: prism_100mmx500mm Model name: Model-prism_100mmx500mm
*Preprint, echo=NO, model=NO, history=NO, contact=NO
**
*PARAMETER
**
*******************************************************************************
**  Preallocated array for Multiphysics-LDPM parameters                      **
**  1. basic LDPM [69 params]:     parameters props ID: 1-69                 **
**  2. time scaling [11 params]:   parameters props ID: 70-80                **
**  3. thermal [5 params]:         parameters props ID: 81-85                **
**  4. shrinkage [5 params]:       parameters props ID: 86-90                **
**  5. poroelasticity [10 params]: parameters props ID: 91-100               **
**  6. high-temp [30 params]:      parameters props ID: 101-130              **
**  7. hydration [30 params]:      parameters props ID: 131-160              **
**  8. aging [30 params]:          parameters props ID: 161-190              **
**  9. creep [20 params]:          parameters props ID: 191-210              **
**  10. evap-water [30 params]:    parameters props ID: 211-240              **
**  11. ASR [30 params]:           parameters props ID: 241-270              **
**									     **
*******************************************************************************
**                              [Basic LDPM]                                 **
**  1-Phase: General LDPM,  2-Phase: Not Used,  3-Phase: ITZ Prop.           **
**                             props ID: 1-23                                **
*******************************************************************************
**
Density1                            = 2.46e-9
ElasticModulus1                     = 21500
Alpha1                              = 0.3
TensileStrength1                    = 2.65
TensileCharacteristicLength1        = 200
ShearStrengthRatio1                 = 4.1
SofteningExponent1                  = 0.2
CompressiveYieldingStrength1        = 100
InitialHardeningModulusRatio1       = 0.4
TransitionalStrainRatio1            = 4
DeviatoricStrainThresholdRatio1     = 1
DeviatoricDamageParameter1          = 5
InitialFriction1                    = 0.2
AsymptoticFriction1                 = 0
TransitionalStress1                 = 600
DensificationRatio1                 = 1.
VolumetricDeviatoricCoupling1       = 0
TensileUnloading1                   = 0.0
ShearUnloading1                     = 0.0
CompressiveUnloading1               = 0.0
ShearSoftening1                     = 0.0
FinalHardeningModulusRatio1         = 0.1
ElasticAnalysisFlag1                = 1
**
*******************************************************************************
**                              [Basic LDPM]                                 **
**  1-Phase: Not Used,  2-Phase: Binder Prop.,  3-Phase: Binder Prop.        **
**                             props ID: 24-46                               **
*******************************************************************************
**
Density2                        =0
ElasticModulus2                 =0
Alpha2                          =0
TensileStrength2                =0
TensileCharacteristicLength2    =0
ShearStrengthRatio2             =0
SofteningExponent2              =0
CompressiveYieldingStrength2    =0
InitialHardeningModulusRatio2   =0
TransitionalStrainRatio2        =0
DeviatoricStrainThresholdRatio2 =0
DeviatoricDamageParameter2      =0
InitialFriction2                =0
AsymptoticFriction2             =0
TransitionalStress2             =0
DensificationRatio2             =0
VolumetricDeviatoricCoupling2   =0
TensileUnloading2               =0
ShearUnloading2                 =0
CompressiveUnloading2           =0
ShearSoftening2                 =0
FinalHardeningModulusRatio2     =0
ElasticAnalysisFlag2            =0
**
*******************************************************************************
**                              [Basic LDPM]                                 **
**  1-Phase: Not Used,  2-Phase: Aggregate Prop.,  3-Phase: Aggregate Prop.  **
**                             props ID: 47-69                               **
*******************************************************************************
**
Density3                        =0
ElasticModulus3                 =0
Alpha3                          =0
TensileStrength3                =0
TensileCharacteristicLength3    =0
ShearStrengthRatio3             =0
SofteningExponent3              =0
CompressiveYieldingStrength3    =0
InitialHardeningModulusRatio3   =0
TransitionalStrainRatio3        =0
DeviatoricStrainThresholdRatio3 =0
DeviatoricDamageParameter3      =0
InitialFriction3                =0
AsymptoticFriction3             =0
TransitionalStress3             =0
DensificationRatio3             =0
VolumetricDeviatoricCoupling3   =0
TensileUnloading3               =0
ShearUnloading3                 =0
CompressiveUnloading3           =0
ShearSoftening3                 =0
FinalHardeningModulusRatio3     =0
ElasticAnalysisFlag3            =0
**
**
*******************************************************************************
**                         [Time scaling]                                    **
**                        props ID: 70-80                                    **
*******************************************************************************
**
TimeScalingFlag                    = 1.0
TimeScalingFactor1                 = 17.28e6
TimeScalingFactor2                 = 0.0
TimeScalingFactor3                 = 0.0
TimeScalingFactor4                 = 0.0
TimeScalingFactor5                 = 0.0
**
TerminalTimeStep1                  = 0.0
TerminalTimeStep2                  = 0.0
TerminalTimeStep3                  = 0.0
TerminalTimeStep4                  = 0.0
TerminalTimeStep5                  = 0.0
**
*******************************************************************************
**                          [Thermal Model]                                  **
**                          props ID: 81-85                                  **
*******************************************************************************
**
ThermalStrainFlag                  = 0.0
ThermalCoefficent                  = 1.0
LITSPoisson                        = 0.0
LITSCoefA                          = 0.0
LITSCoefB                          = 0.0
**
*******************************************************************************
**                          [Shrinkage Model]                                **
**                           props ID: 86-90                                 **
*******************************************************************************
**
ShrinkageStrainFlag                = 0.0
ShrinkageCoefficent                = 1.0
ShrinkageParam2                    = 0.0
ShrinkageParam3                    = 0.0
ShrinkageParam4                    = 0.0
**
*******************************************************************************
**                          [Poroelasticity]                                 **
**                          props ID: 91-100                                 **
*******************************************************************************
**
ImposedStressFlag                  = 1.0
BiotCoefficient                    = 0.5
PoroElasParam2                     = 0.0
PoroElasParam3                     = 0.0
PoroElasParam4                     = 0.0
PoroElasParam5                     = 0.0
PoroElasParam6                     = 0.0
PoroElasParam7                     = 0.0
PoroElasParam8                     = 0.0
PoroElasParam9                     = 0.0
**
*******************************************************************************
**                      [High-temperature degradation]                       **
**                          props ID: 101-129                                **
*******************************************************************************
**
HTDegradationFlag                  = 0.0
**
E0startT                           = 100.0
E0meltT                            = 700.0
E0nd                               = 0.2
ftstartT                           = 220.0
ftmeltT                            = 1000.0
ftnd                               = 1.4
fsstartT                           = 50.0
fsmeltT                            = 1200.0
fsnd                               = -0.6
fcstartT                           = 300.0
fcmeltT                            = 1000.0
fcnd                               = 0.2
sf0startT                          = 300.0
sf0meltT                           = 1000.0
sf0nd                              = 0.2
**
HighTempParam16		           = 0.0
HighTempParam17		           = 0.0
HighTempParam18		           = 0.0
HighTempParam19                    = 0.0
HighTempParam20		           = 0.0
HighTempParam21                    = 0.0
*******************************************************************************
**                      [High-temperature DTemPor3]                          **
**                          props ID: 123-130                                **
*******************************************************************************
**
TemPorFlag                         = 0.0
WatContent                         = 0.0
CemContent                         = 0.0
InitialWe0                         = 0.0
HydrualicCond                      = 0.0
TempOnHC                           = 0.0
HeatCapacity                       = 0.0
ThermalCond                        = 0.0
**
*******************************************************************************
**               [Hydration and silica fume reactions]                       **
**   props ID: 130-Flag,131-148[basic],149-152[ONIX],153-155[HTC],156-160    **
*******************************************************************************
**
HydrationFlag                      = 0.0
WatertoCementRatio                 = 0.5
CementContent                      = 4.2e-10
HydrationReferenceTemperature      = 293.15
CementHydrationAc1                 = 4.53e-2
CementHydrationAc2                 = 1.0e-2
CementHydrationEtac                = 8.
CementHydrationEnergy              = 4.6e7
CementHydrationEnthalpy            = 5.2e11
InitialHydrationDegree             = 0.0
SilicaFumeContent                  = 0.0
SFReactionReferenceTemperature     = 293.15
SilicaFumeReactionAs1              = 1.1e-5
SilicaFumeReactionAs2              = 1.0e-6
SilicaFumeReactionEtac             = 9.5
SilicaFumeReactionEnergy           = 8.0e7
SilicaFumeReactionEnthalpy         = 7.8e11
InitialSFReactionDegree            = 0.0
**
SaturatedInfinityalphac            = 0.8888888
CementHydrationZeta                = 5.
SaturatedInfinityalphas            = 0.9999999
SilicaFumeReactionZeta             = 0.9
**
CementHydrationHumiditya           = 5.5
CementHydrationHumidityb           = 4.0
SilicaFumeEfficiency               = 0.9
**
HydrationParam25                   = 0.0
HydrationParam26                   = 0.0
HydrationParam27                   = 0.0
HydrationParam28                   = 0.0
HydrationParam29                   = 0.0
**
*******************************************************************************
**		               [Aging model]                                 **
**		               props ID: 161-190                             **
*******************************************************************************
**
AgingFlag                          = 0.0
AgeingAlpha0                       = 0.15
AgeingALambda                      = 0.5
AgeingReferenceTemperature         = 293.15
AgeingTemperatureExponent          = 0.8
InitialAgingDegree                 = 0.0
RelativeInitialModulus             = 0.2
ModulusAgingCoefficient            = 1.16
RelativeInitialStrengtht           = 0.3
StrengthtAgingCoefficient          = 1.2
RelativeInitialStrengthc0          = 0.3
Strengthc0AgingCoefficient         = 1.2
RelativeInitialStrengthN0          = 0.3
StrengthN0AgingCoefficient         = 1.2
RelativeInitialRst                 = 0.4
RstAgingCoefficient                = 1.8
LtAgingParameter                   = 3.57
AgingParam17                       = 0.0
AgingParam18                       = 0.0
AgingParam19                       = 0.0
AgingParam20                       = 0.0
AgingParam21                       = 0.0
AgingParam22                       = 0.0
AgingParam23                       = 0.0
AgingParam24                       = 0.0
AgingParam25                       = 0.0
AgingParam26                       = 0.0
AgingParam27                       = 0.0
AgingParam28                       = 0.0
AgingParam29                       = 0.0
**
*******************************************************************************
**		               [Creep Model]                                 **
**		               props ID: 191-210                             **
*******************************************************************************
**
CreepModelFlag                     = 0.0
MesoscaleInstantaneousComplianceq1 = 1.0
ViscoelasticXi1                    = 1.0
ViscoelasticN                      = 1.0
PurelyViscousKappa0                = 1.0
PurelyViscousKappa1                = 1.0
PurelyViscousXi2                   = 1.0
InitialRealTime                    = 3600.0
InitialMicroprestress              = 1.0
CreepTau0                          = -4.0
NKelvinChain                       = 10.0
CreepA0                            = 0.0
A0IntegrationTime                  = 10.0
DeltaTau                           = 0.0
CreepParam14                       = 0.0
CreepParam15                       = 0.0
CreepParam16                       = 0.0
CreepParam17                       = 0.0
CreepParam18                       = 0.0
CreepParam19                       = 0.0
**
*******************************************************************************
**		               [Evaporable water model]                      **
**		               props ID: 211-240                             **
*******************************************************************************
**
EvapWaterFlag                      = 0.0
EvapWaterParam1                    = 1.0
EvapWaterParam2		           = 0.0
EvapWaterParam3		           = 0.0
EvapWaterParam4		           = 0.0
EvapWaterParam5		           = 0.0
EvapWaterParam6		           = 0.0
EvapWaterParam7		           = 0.0
EvapWaterParam8		           = 0.0
EvapWaterParam9                    = 0.0
EvapWaterParam10                   = 0.0
EvapWaterParam11                   = 0.0
EvapWaterParam12                   = 0.0
EvapWaterParam13                   = 0.0
EvapWaterParam14                   = 0.0
EvapWaterParam15                   = 0.0
EvapWaterParam16                   = 0.0
EvapWaterParam17                   = 0.0
EvapWaterParam18                   = 0.0
EvapWaterParam19                   = 0.0
EvapWaterParam20                   = 0.0
** ... 9 like lines cut
**
*******************************************************************************
**		               [Alkali silica reaction Model]                **
**		               props ID: 241-270                             **
*******************************************************************************
**
AlkaliSilicaReactionFlag           = 0.0
ASRReferenceTemperature            = 1.0
AlkaliDiffusionCoeffiecentCz10     = 1.0
AlkaliDiffusionRatioCz1OverCz0     = 1.0
AlkaliDiffusionExponentnZ          = 1.0
AlkaliDiffusionEnergyEag           = 1.0
AlkaliContentCoefficientkappaa     = 1.0
SilicaContentCs                    = 1.0
BulkDiffusionCoefficientCw10       = 1.0
BulkDiffusionRatioCw1OverCw0       = 1.0
BulkDiffusionExponentnw            = 1.0
BulkDiffusionEnergyEaw             = 1.0
WaterImbibitionCoefficientbetaw10  = 1.0
TemperatureDependentkappaT         = 1.0
HumidityDependentkappah            = 1.0
ASRParam15                         = 0.0
ASRParam16                         = 0.0
ASRParam17                         = 0.0
ASRParam18                         = 0.0
ASRParam19                         = 0.0
ASRParam20                         = 0.0
ASRParam21                         = 0.0
ASRParam22                         = 0.0
ASRParam23                         = 0.0
ASRParam24                         = 0.0
ASRParam25                         = 0.0
ASRParam26                         = 0.0
ASRParam27                         = 0.0
ASRParam28                         = 0.0
ASRParam29                         = 0.0
**
**
*******************************************************************************
**                             Other parameters                              **
**                              jprops ID: 1                                 **
*******************************************************************************
**
NumberOfUserElement                =5710
**
** PARTS
**
*Part, name=prism_100mmx500mm
*USER ELEMENT, NODES=4, TYPE=VU4, COORDINATES=3, variables=900, PROPERTIES=270, I PROPERTIES=1, INTEGRATION=3
1, 2, 3, 4, 5, 6
*Node
1, 0.0, 100.0, 0.0
2, 0.0, 0.0, 0.0
3, 0.0, 0.0, 500.0
4, 0.0, 100.0, 500.0
5, 100.0, 0.0, 0.0
6, 100.0, 0.0, 500.0
7, 100.0, 100.0, 0.0
8, 100.0, 100.0, 500.0
9, 0.0, 80.0, 0.0
10, 0.0, 60.0, 0.0
11, 0.0, 40.0, 0.0
12, 0.0, 20.0, 0.0
13, 0.0, 0.0, 480.0
14, 0.0, 0.0, 460.0
15, 0.0, 0.0, 440.0
16, 0.0, 0.0, 420.0
17, 0.0, 0.0, 400.0
18, 0.0, 0.0, 380.0
19, 0.0, 0.0, 360.0
20, 0.0, 0.0, 340.0
** ... 1251 like lines cut
*Element, type=VU4, elset=AllEls
1, 214, 172, 240, 968
2, 376, 280, 734, 847
3, 188, 172, 55, 884
4, 236, 1190, 932, 789
5, 1066, 1175, 1235, 776
6, 993, 188, 884, 948
7, 620, 101, 8, 485
8, 1262, 852, 754, 841
9, 1066, 1267, 776, 800
10, 891, 1219, 723, 927
11, 896, 821, 854, 1105
12, 266, 41, 617, 1103
13, 643, 550, 725, 714
14, 381, 333, 303, 792
15, 125, 515, 680, 126
16, 191, 232, 1040, 786
17, 997, 340, 1074, 1259
18, 1193, 574, 869, 1052
19, 954, 644, 939, 1245
20, 282, 372, 341, 774
** ... 5690 like lines cut
*Element, type=S3R
5711, 125, 126, 680
5712,  39,  40, 674
5713,  40,   3, 667
5714, 667,   3,  93
5715,  94, 662, 675
5716,   6, 668,  96
5717, 127, 128, 677
5718, 681, 669, 133
5719, 133, 669,   8
5720, 664, 671, 659
5721, 657, 670, 671
5722, 135, 136, 678
5723,  95, 676, 662
5724, 675, 667,  93
5725,  38, 664, 679
5726, 673, 671, 664
5727, 134, 135, 665
5728, 673, 661, 662
5729, 663, 672, 660
5730, 668, 676,  96
** ... 48 like lines cut
*UEL PROPERTY, ELSET=AllEls
<Density1>, <ElasticModulus1>, <Alpha1>, <TensileStrength1>, <TensileCharacteristicLength1>, <ShearStrengthRatio1>, <SofteningExponent1>, <CompressiveYieldingStrength1>,
<InitialHardeningModulusRatio1>, <TransitionalStrainRatio1>, <DeviatoricStrainThresholdRatio1>, <DeviatoricDamageParameter1>, <InitialFriction1>, <AsymptoticFriction1>, <TransitionalStress1>, <DensificationRatio1>,
<VolumetricDeviatoricCoupling1>, <TensileUnloading1>, <ShearUnloading1>, <CompressiveUnloading1>, <ShearSoftening1>, <FinalHardeningModulusRatio1>, <ElasticAnalysisFlag1>, <Density2>,
<ElasticModulus2>, <Alpha2>, <TensileStrength2>, <TensileCharacteristicLength2>, <ShearStrengthRatio2>, <SofteningExponent2>, <CompressiveYieldingStrength2>, <InitialHardeningModulusRatio2>,
<TransitionalStrainRatio2>, <DeviatoricStrainThresholdRatio2>, <DeviatoricDamageParameter2>,  <InitialFriction2>, <AsymptoticFriction2>, <TransitionalStress2>, <DensificationRatio2>, <VolumetricDeviatoricCoupling2>,
<TensileUnloading2>, <ShearUnloading2>, <CompressiveUnloading2>, <ShearSoftening2>, <FinalHardeningModulusRatio2>, <ElasticAnalysisFlag2>, <Density3>, <ElasticModulus3>,
<Alpha3>, <TensileStrength3>, <TensileCharacteristicLength3>, <ShearStrengthRatio3>, <SofteningExponent3>, <CompressiveYieldingStrength3>, <InitialHardeningModulusRatio3>, <TransitionalStrainRatio3>,
<DeviatoricStrainThresholdRatio3>, <DeviatoricDamageParameter3>, <InitialFriction3>, <AsymptoticFriction3>, <TransitionalStress3>, <DensificationRatio3>, <VolumetricDeviatoricCoupling3>, <TensileUnloading3>,
<ShearUnloading3>, <CompressiveUnloading3>, <ShearSoftening3>, <FinalHardeningModulusRatio3>, <ElasticAnalysisFlag3>, <TimeScalingFlag>, <TimeScalingFactor1>, <TimeScalingFactor2>,
<TimeScalingFactor3>, <TimeScalingFactor4>, <TimeScalingFactor5>, <TerminalTimeStep1>, <TerminalTimeStep2>, <TerminalTimeStep3>, <TerminalTimeStep4>, <TerminalTimeStep5>,
<ThermalStrainFlag>, <ThermalCoefficent>, <LITSPoisson>, <LITSCoefA>, <LITSCoefB>, <ShrinkageStrainFlag>, <ShrinkageCoefficent>, <ShrinkageParam2>,
<ShrinkageParam3>, <ShrinkageParam4>, <ImposedStressFlag>, <BiotCoefficient>, <PoroElasParam2>, <PoroElasParam3>, <PoroElasParam4>, <PoroElasParam5>,
<PoroElasParam6>, <PoroElasParam7>, <PoroElasParam8>, <PoroElasParam9>, <HTDegradationFlag>, <E0startT>, <E0meltT>, <E0nd>,
<ftstartT>, <ftmeltT>, <ftnd>, <fsstartT>, <fsmeltT>, <fsnd>, <fcstartT>, <fcmeltT>,
<fcnd>, <sf0startT>, <sf0meltT>, <HighTempParam16>, <HighTempParam17>, <HighTempParam18>, <HighTempParam19>, <HighTempParam20>,
<HighTempParam21>,<TemPorFlag>, <WatContent>, <CemContent>,<InitialWe0>, <HydrualicCond>, <TempOnHC>, <HeatCapacity>,
<ThermalCond>,<HydrationFlag>, <WatertoCementRatio>, <CementContent>, <HydrationReferenceTemperature>, <CementHydrationAc1>, <CementHydrationAc2>,
<CementHydrationEtac>, <CementHydrationEnergy>, <CementHydrationEnthalpy>, <InitialHydrationDegree>, <SilicaFumeContent>, <SFReactionReferenceTemperature>, <SilicaFumeReactionAs1>, <SilicaFumeReactionAs2>,
<SilicaFumeReactionEtac>, <SilicaFumeReactionEnergy>, <SilicaFumeReactionEnthalpy>, <InitialSFReactionDegree>, <SaturatedInfinityalphac>, <CementHydrationZeta>, <SaturatedInfinityalphas>, <SilicaFumeReactionZeta>,
<CementHydrationHumiditya>, <CementHydrationHumidityb>, <SilicaFumeEfficiency>, <HydrationParam25>, <HydrationParam26>, <HydrationParam27>, <HydrationParam28>, <HydrationParam29>,
<AgingFlag>, <AgeingAlpha0>, <AgeingALambda>, <AgeingReferenceTemperature>, <AgeingTemperatureExponent>, <InitialAgingDegree>, <RelativeInitialModulus>, <ModulusAgingCoefficient>,
<RelativeInitialStrengtht>,<StrengthtAgingCoefficient>, <RelativeInitialStrengthc0>, <Strengthc0AgingCoefficient>, <RelativeInitialStrengthN0>, <StrengthN0AgingCoefficient>, <RelativeInitialRst>, <RstAgingCoefficient>,
<LtAgingParameter>, <AgingParam17>, <AgingParam18>, <AgingParam19>, <AgingParam20>, <AgingParam21>, <AgingParam22>, <AgingParam23>,
<AgingParam24>, <AgingParam25>, <AgingParam26>, <AgingParam27>, <AgingParam28>, <AgingParam29>, <CreepModelFlag>, <MesoscaleInstantaneousComplianceq1>,
<ViscoelasticXi1>, <ViscoelasticN>, <PurelyViscousKappa0>, <PurelyViscousKappa1>, <PurelyViscousXi2>, <InitialRealTime>, <InitialMicroprestress>, <CreepTau0>,
<NKelvinChain>, <CreepA0>, <A0IntegrationTime>, <DeltaTau>, <CreepParam14>, <CreepParam15>, <CreepParam16>, <CreepParam17>,
<CreepParam18>, <CreepParam19>, <EvapWaterFlag>, <EvapWaterParam1>, <EvapWaterParam2>, <EvapWaterParam3>, <EvapWaterParam4>, <EvapWaterParam5>,
<EvapWaterParam6>, <EvapWaterParam7>, <EvapWaterParam8>, <EvapWaterParam9>, <EvapWaterParam10>, <EvapWaterParam11>, <EvapWaterParam12>, <EvapWaterParam13>,
<EvapWaterParam14>, <EvapWaterParam15>, <EvapWaterParam16>, <EvapWaterParam17>, <EvapWaterParam18>, <EvapWaterParam19>, <EvapWaterParam20>, <EvapWaterParam21>,
<EvapWaterParam22>, <EvapWaterParam23>, <EvapWaterParam24>, <EvapWaterParam25>, <EvapWaterParam26>, <EvapWaterParam27>, <EvapWaterParam28>, <EvapWaterParam29>,
<AlkaliSilicaReactionFlag>, <ASRReferenceTemperature>, <AlkaliDiffusionCoeffiecentCz10>, <AlkaliDiffusionRatioCz1OverCz0>, <AlkaliDiffusionExponentnZ>, <AlkaliDiffusionEnergyEag>, <AlkaliContentCoefficientkappaa>,<SilicaContentCs>,
<BulkDiffusionCoefficientCw10>, <BulkDiffusionRatioCw1OverCw0>, <BulkDiffusionExponentnw>, <BulkDiffusionEnergyEaw>, <WaterImbibitionCoefficientbetaw10>, <TemperatureDependentkappaT>, <HumidityDependentkappah>, <ASRParam15>,
<ASRParam16>, <ASRParam17>, <ASRParam18>, <ASRParam19>, <ASRParam20>, <ASRParam21>, <ASRParam22>, <ASRParam23>,
<ASRParam24>, <ASRParam25>, <ASRParam26>, <ASRParam27>, <ASRParam28>, <ASRParam29>, <NumberOfUserElement>
*Elset, elset=InnerSkin, internal, generate
5711, 5778, 1
*Surface, type=ELEMENT, name=APPLYPRESSURE
InnerSkin, SPOS
** Section: Section-1-InnerSkin
*Shell Section, elset=InnerSkin,material=Skin,offset=SNEG
5, 5
*End Part
**
**
** ASSEMBLY
**
*Assembly, name=Assembly
**
*Instance, name=prism_100mmx500mm-1, part=prism_100mmx500mm
*End Instance
**
*Nset, nset=AllLDPMnodes, instance=prism_100mmx500mm-1, generate
1, 1271, 1
*NSET, NSET=LeftNodes, instance=prism_100mmx500mm-1
3,4,6,8,37,38,39,40,93,94,95,96,125,126,127
128,133,134,135,136,657,658,659,660,661,662,663,664,665,666
667,668,669,670,671,672,673,674,675,676,677,678,679,680,681
*NSET, NSET=RightNodes, instance=prism_100mmx500mm-1
1,2,5,7,9,10,11,12,65,66,67,68,97,98,99
100,129,130,131,132,682,683,684,685,686,687,688,689,690,691
692,693,694,695,696,697,698,699,700,701,702,703,704,705,706
*NSET, NSET=BottomNodes, instance=prism_100mmx500mm-1
2,3,5,6,13,14,15,16,17,18,19,20,21,22,23
24,25,26,27,28,29,30,31,32,33,34,35,36,65,66
67,68,69,70,71,72,73,74,75,76,77,78,79,80,81
82,83,84,85,86,87,88,89,90,91,92,93,94,95,96
267,268,269,270,271,272,273,274,275,276,277,278,279,280,281
282,283,284,285,286,287,288,289,290,291,292,293,294,295,296
297,298,299,300,301,302,303,304,305,306,307,308,309,310,311
312,313,314,315,316,317,318,319,320,321,322,323,324,325,326
327,328,329,330,331,332,333,334,335,336,337,338,339,340,341
342,343,344,345,346,347,348,349,350,351,352,353,354,355,356
357,358,359,360,361,362,363,364,365,366,367,368,369,370,371
372,373,374,375,376,377,378,379,380,381,382,383,384,385,386
387,388,389,390,391,392,393,394,395,396,397
*NSET, NSET=TopNodes, instance=prism_100mmx500mm-1
1,4,7,8,41,42,43,44,45,46,47,48,49,50,51
52,53,54,55,56,57,58,59,60,61,62,63,64,101,102
103,104,105,106,107,108,109,110,111,112,113,114,115,116,117
118,119,120,121,122,123,124,129,130,131,132,133,134,135,136
529,530,531,532,533,534,535,536,537,538,539,540,541,542,543
544,545,546,547,548,549,550,551,552,553,554,555,556,557,558
559,560,561,562,563,564,565,566,567,568,569,570,571,572,573
574,575,576,577,578,579,580,581,582,583,584,585,586,587,588
589,590,591,592,593,594,595,596,597,598,599,600,601,602,603
604,605,606,607,608,609,610,611,612,613,614,615,616,617,618
619,620,621,622,623,624,625,626,627,628,629,630,631,632,633
634,635,636,637,638,639,640,641,642,643,644,645,646,647,648
649,650,651,652,653,654,655,656
*NSET, NSET=BackNodes, instance=prism_100mmx500mm-1
1,2,3,4,9,10,11,12,13,14,15,16,17,18,19
20,21,22,23,24,25,26,27,28,29,30,31,32,33,34
35,36,37,38,39,40,41,42,43,44,45,46,47,48,49
50,51,52,53,54,55,56,57,58,59,60,61,62,63,64
137,138,139,140,141,142,143,144,145,146,147,148,149,150,151
152,153,154,155,156,157,158,159,160,161,162,163,164,165,166
167,168,169,170,171,172,173,174,175,176,177,178,179,180,181
182,183,184,185,186,187,188,189,190,191,192,193,194,195,196
197,198,199,200,201,202,203,204,205,206,207,208,209,210,211
212,213,214,215,216,217,218,219,220,221,222,223,224,225,226
227,228,229,230,231,232,233,234,235,236,237,238,239,240,241
242,243,244,245,246,247,248,249,250,251,252,253,254,255,256
257,258,259,260,261,262,263,264,265,266
*NSET, NSET=FrontNodes, instance=prism_100mmx500mm-1
5,6,7,8,69,70,71,72,73,74,75,76,77,78,79
80,81,82,83,84,85,86,87,88,89,90,91,92,97,98
99,100,101,102,103,104,105,106,107,108,109,110,111,112,113
114,115,116,117,118,119,120,121,122,123,124,125,126,127,128
398,399,400,401,402,403,404,405,406,407,408,409,410,411,412
413,414,415,416,417,418,419,420,421,422,423,424,425,426,427
428,429,430,431,432,433,434,435,436,437,438,439,440,441,442
443,444,445,446,447,448,449,450,451,452,453,454,455,456,457
458,459,460,461,462,463,464,465,466,467,468,469,470,471,472
473,474,475,476,477,478,479,480,481,482,483,484,485,486,487
488,489,490,491,492,493,494,495,496,497,498,499,500,501,502
503,504,505,506,507,508,509,510,511,512,513,514,515,516,517
518,519,520,521,522,523,524,525,526,527,528
*End Assembly
*Amplitude, name=Amp-1, time=TOTAL TIME
0., 0., 1e-2, 1., 2.5e-2, 1.
**
** MATERIALS
**
*Material, name=Skin
*Density
<Density1>,
*Elastic
14500, 0.16279
** 
** BOUNDARY CONDITIONS 
** 
** Name: BC-1 Type: Displacement/Rotation 
*Boundary 
BackNodes, 1, 2 
BackNodes, 4, 6 
FrontNodes, 1, 2
FrontNodes, 4, 6  
BottomNodes, 1, 2 
BottomNodes, 4, 6
TopNodes, 1, 2 
TopNodes, 4, 6 
LeftNodes, 1, 2
LeftNodes, 4, 6
RightNodes, 1, 6
** ----------------------------------------------------------------
**
** STEP: Step-1
**
*Step, name=Step-1, nlgeom=NO
*Dynamic, Explicit, DIRECT USER CONTROL
5.0e-7, 2.5e-2
*Bulk Viscosity
0.06, 1.2
**
** LOADS
**
** Name: SURFFORCE-1   Type: Pressure
*Dsload
prism_100mmx500mm-1.APPLYPRESSURE, P, 0.0
**
** OUTPUT REQUESTS
**
** FIELD OUTPUT: F-Output-1
**
*Output, Field, Var=Preselect, Number interval=400
*Node Output, Nset=AllLDPMNodes
U, V, A
*End Step
