*Heading
** Job name: grasslDisk-fracture Model name: Model-grasslDisk-fracture
*Preprint, echo=NO, model=NO, history=NO, contact=NO
**
*PARAMETER
**
*******************************************************************************
**  Preallocated array for Multiphysics-LDPM parameters                      **
**  1. basic LDPM [69 params]:     parameters props ID: 1-69                 **
**  2. time scaling [11 params]:   parameters props ID: 70-80                **
**  3. thermal [5 params]:         parameters props ID: 81-85                **
**  4. shrinkage [5 params]:       parameters props ID: 86-90                **
**  5. poroelasticity [10 params]: parameters props ID: 91-100               **
**  6. high-temp [30 params]:      parameters props ID: 101-130              **
**  7. hydration [30 params]:      parameters props ID: 131-160              **
**  8. aging [30 params]:          parameters props ID: 161-190              **
**  9. creep [20 params]:          parameters props ID: 191-210              **
**  10. evap-water [30 params]:    parameters props ID: 211-240              **
**  11. ASR [30 params]:           parameters props ID: 241-270              **
**                                                                           **
*******************************************************************************
**                              [Basic LDPM]                                 **
**  1-Phase: General LDPM,  2-Phase: Not Used,  3-Phase: ITZ Prop.           **
**                             props ID: 1-23                                **
*******************************************************************************
**
Density1                            = 2.46e-9
ElasticModulus1                     = 46480.0
Alpha1                              = 0.5455
TensileStrength1                    = 2.1
TensileCharacteristicLength1        = 200.0
ShearStrengthRatio1                 = 4.1
SofteningExponent1                  = 0.2
CompressiveYieldingStrength1        = 100.0
InitialHardeningModulusRatio1       = 0.4
TransitionalStrainRatio1            = 4.0
DeviatoricStrainThresholdRatio1     = 1.0
DeviatoricDamageParameter1          = 5.0
InitialFriction1                    = 0.2
AsymptoticFriction1                 = 0.0
TransitionalStress1                 = 600.0
DensificationRatio1                 = 1.0
VolumetricDeviatoricCoupling1       = 0.0
TensileUnloading1                   = 0.0
ShearUnloading1                     = 0.0
CompressiveUnloading1               = 0.0
ShearSoftening1                     = 0.0
FinalHardeningModulusRatio1         = 0.1
ElasticAnalysisFlag1                = 0.0
**
*******************************************************************************
**                              [Basic LDPM]                                 **
**  1-Phase: Not Used,  2-Phase: Binder Prop.,  3-Phase: Binder Prop.        **
**                             props ID: 24-46                               **
*******************************************************************************
**
Density2                        =0
ElasticModulus2                 =0
Alpha2                          =0
TensileStrength2                =0
TensileCharacteristicLength2    =0
ShearStrengthRatio2             =0
SofteningExponent2              =0
CompressiveYieldingStrength2    =0
InitialHardeningModulusRatio2   =0
TransitionalStrainRatio2        =0
DeviatoricStrainThresholdRatio2 =0
DeviatoricDamageParameter2      =0
InitialFriction2                =0
AsymptoticFriction2             =0
TransitionalStress2             =0
DensificationRatio2             =0
VolumetricDeviatoricCoupling2   =0
TensileUnloading2               =0
ShearUnloading2                 =0
CompressiveUnloading2           =0
ShearSoftening2                 =0
FinalHardeningModulusRatio2     =0
ElasticAnalysisFlag2            =0
**
*******************************************************************************
**                              [Basic LDPM]                                 **
**  1-Phase: Not Used,  2-Phase: Aggregate Prop.,  3-Phase: Aggregate Prop.  **
**                             props ID: 47-69                               **
*******************************************************************************
**
Density3                        =0
ElasticModulus3                 =0
Alpha3                          =0
TensileStrength3                =0
TensileCharacteristicLength3    =0
ShearStrengthRatio3             =0
SofteningExponent3              =0
CompressiveYieldingStrength3    =0
InitialHardeningModulusRatio3   =0
TransitionalStrainRatio3        =0
DeviatoricStrainThresholdRatio3 =0
DeviatoricDamageParameter3      =0
InitialFriction3                =0
AsymptoticFriction3             =0
TransitionalStress3             =0
DensificationRatio3             =0
VolumetricDeviatoricCoupling3   =0
TensileUnloading3               =0
ShearUnloading3                 =0
CompressiveUnloading3           =0
ShearSoftening3                 =0
FinalHardeningModulusRatio3     =0
ElasticAnalysisFlag3            =0
**
**
*******************************************************************************
**                         [Time scaling]                                    **
**                        props ID: 70-80                                    **
*******************************************************************************
**
TimeScalingFlag                    = 1.0
TimeScalingFactor1                 = 9.0e6
TimeScalingFactor2                 = 0.0
TimeScalingFactor3                 = 0.0
TimeScalingFactor4                 = 0.0
TimeScalingFactor5                 = 0.0
**
TerminalTimeStep1                  = 0.0
TerminalTimeStep2                  = 0.0
TerminalTimeStep3                  = 0.0
TerminalTimeStep4                  = 0.0
TerminalTimeStep5                  = 0.0
**
*******************************************************************************
**                          [Thermal Model]                                  **
**                          props ID: 81-85                                  **
*******************************************************************************
**
ThermalStrainFlag                  = 0.0
ThermalCoefficent                  = 7.0e-6
LITSPoisson                        = 0.0
LITSCoefA                          = 0.0004
LITSCoefB                          = 0.001
**
*******************************************************************************
**                          [Shrinkage Model]                                **
**                           props ID: 86-90                                 **
*******************************************************************************
**
ShrinkageStrainFlag                = 0.0
ShrinkageCoefficent                = 1.0
ShrinkageParam2                    = 0.0
ShrinkageParam3                    = 0.0
ShrinkageParam4                    = 0.0
**
*******************************************************************************
**                          [Poroelasticity]                                 **
**                          props ID: 91-100                                 **
*******************************************************************************
**
ImposedStressFlag                  = 1.0
BiotCoefficient                    = 0.5
PoroElasParam2                     = 0.0
PoroElasParam3                     = 0.0
PoroElasParam4                     = 0.0
PoroElasParam5                     = 0.0
PoroElasParam6                     = 0.0
PoroElasParam7                     = 0.0
PoroElasParam8                     = 0.0
PoroElasParam9                     = 0.0
**
*******************************************************************************
**                      [High-temperature degradation]                       **
**                          props ID: 101-122                                **
*******************************************************************************
**
HTDegradationFlag                  = 0.0
**
E0startT                           = 100.0
E0meltT                            = 700.0
E0nd                               = 0.2
ftstartT                           = 220.0
ftmeltT                            = 1000.0
ftnd                               = 1.4
fsstartT                           = 50.0
fsmeltT                            = 1200.0
fsnd                               = -0.6
fcstartT                           = 300.0
fcmeltT                            = 1000.0
fcnd                               = 0.2
sf0startT                          = 300.0
sf0meltT                           = 1000.0
sf0nd                              = 0.2
**
HighTempParam16                    = 0.0
HighTempParam17                    = 0.0
HighTempParam18                    = 0.0
HighTempParam19                    = 0.0
HighTempParam20                    = 0.0
HighTempParam21                    = 0.0
*******************************************************************************
**                      [High-temperature DTemPor3]                          **
**                          props ID: 123-130                                **
*******************************************************************************
**
TemPorFlag                         = 0.0
WatContent                         = 0.0
CemContent                         = 0.0
InitialWe0                         = 0.0
HydrualicCond                      = 0.0
TempOnHC                           = 0.0
HeatCapacity                       = 0.0
ThermalCond                        = 0.0
**
*******************************************************************************
**               [Hydration and silica fume reactions]                       **
**   props ID: 131-Flag,132-148[basic],149-152[ONIX],153-155[HTC],156-160    **
*******************************************************************************
**
HydrationFlag                      = 0.0
WatertoCementRatio                 = 0.5
CementContent                      = 4.2e-10
HydrationReferenceTemperature      = 293.15
CementHydrationAc1                 = 4.53e-2
CementHydrationAc2                 = 1.0e-2
CementHydrationEtac                = 8.
CementHydrationEnergy              = 4.6e7
CementHydrationEnthalpy            = 5.2e11
InitialHydrationDegree             = 0.0
SilicaFumeContent                  = 0.0
SFReactionReferenceTemperature     = 293.15
SilicaFumeReactionAs1              = 1.1e-5
SilicaFumeReactionAs2              = 1.0e-6
SilicaFumeReactionEtac             = 9.5
SilicaFumeReactionEnergy           = 8.0e7
SilicaFumeReactionEnthalpy         = 7.8e11
InitialSFReactionDegree            = 0.0
**
SaturatedInfinityalphac            = 0.8888888
CementHydrationZeta                = 5.
SaturatedInfinityalphas            = 0.9999999
SilicaFumeReactionZeta             = 0.9
**
CementHydrationHumiditya           = 5.5
CementHydrationHumidityb           = 4.0
SilicaFumeEfficiency               = 0.9
**
HydrationParam25                   = 0.0
HydrationParam26                   = 0.0
HydrationParam27                   = 0.0
HydrationParam28                   = 0.0
HydrationParam29                   = 0.0
**
*******************************************************************************
**		               [Aging model]                                          **
**		               props ID: 161-190                                      **
*******************************************************************************
**
AgingFlag                          = 0.0
AgeingAlpha0                       = 0.15
AgeingALambda                      = 0.5
AgeingReferenceTemperature         = 293.15
AgeingTemperatureExponent          = 0.8
InitialAgingDegree                 = 0.0
RelativeInitialModulus             = 0.2
ModulusAgingCoefficient            = 1.16
RelativeInitialStrengtht           = 0.3
StrengthtAgingCoefficient          = 1.2
RelativeInitialStrengthc0          = 0.3
Strengthc0AgingCoefficient         = 1.2
RelativeInitialStrengthN0          = 0.3
StrengthN0AgingCoefficient         = 1.2
RelativeInitialRst                 = 0.4
RstAgingCoefficient                = 1.8
LtAgingParameter                   = 3.57
AgingParam17                       = 0.0
AgingParam18                       = 0.0
AgingParam19                       = 0.0
AgingParam20                       = 0.0
AgingParam21                       = 0.0
AgingParam22                       = 0.0
AgingParam23                       = 0.0
AgingParam24                       = 0.0
AgingParam25                       = 0.0
AgingParam26                       = 0.0
AgingParam27                       = 0.0
AgingParam28                       = 0.0
AgingParam29                       = 0.0
**
*******************************************************************************
**		               [Creep Model]                                          **
**		               props ID: 191-210                                      **
*******************************************************************************
**
CreepModelFlag                     = 1.0
MesoscaleInstantaneousComplianceq1 = 1.0
ViscoelasticXi1                    = 1.0
ViscoelasticN                      = 1.0
PurelyViscousKappa0                = 1.0
PurelyViscousKappa1                = 1.0
PurelyViscousXi2                   = 1.0
InitialRealTime                    = 3600.0
InitialMicroprestress              = 1.0
CreepTau0                          = -4.0
NKelvinChain                       = 10.0
CreepA0                            = 0.0
A0IntegrationTime                  = 10.0
DeltaTau                           = 0.0
CreepParam14                       = 0.0
CreepParam15                       = 0.0
CreepParam16                       = 0.0
CreepParam17                       = 0.0
CreepParam18                       = 0.0
CreepParam19                       = 0.0
**
*******************************************************************************
**		               [Evaporable water model                                **
**		               props ID: 211-240                                      **
*******************************************************************************
**
EvapWaterFlag                      = 0.0
EvapWaterParam1                    = 1.0
EvapWaterParam2		           = 0.0
EvapWaterParam3		           = 0.0
EvapWaterParam4		           = 0.0
EvapWaterParam5		           = 0.0
EvapWaterParam6		           = 0.0
EvapWaterParam7		           = 0.0
EvapWaterParam8		           = 0.0
EvapWaterParam9                    = 0.0
EvapWaterParam10                   = 0.0
EvapWaterParam11                   = 0.0
EvapWaterParam12                   = 0.0
EvapWaterParam13                   = 0.0
EvapWaterParam14                   = 0.0
EvapWaterParam15                   = 0.0
EvapWaterParam16                   = 0.0
EvapWaterParam17                   = 0.0
EvapWaterParam18                   = 0.0
EvapWaterParam19                   = 0.0
EvapWaterParam20                   = 0.0
** ... 9 like lines cut
**
*******************************************************************************
**		               [Alkali silica reaction Model]                         **
**		               props ID: 241-270                                      **
*******************************************************************************
**
AlkaliSilicaReactionFlag           = 0.0
ASRReferenceTemperature            = 1.0
AlkaliDiffusionCoeffiecentCz10     = 1.0
AlkaliDiffusionRatioCz1OverCz0     = 1.0
AlkaliDiffusionExponentnZ          = 1.0
AlkaliDiffusionEnergyEag           = 1.0
AlkaliContentCoefficientkappaa     = 1.0
SilicaContentCs                    = 1.0
BulkDiffusionCoefficientCw10       = 1.0
BulkDiffusionRatioCw1OverCw0       = 1.0
BulkDiffusionExponentnw            = 1.0
BulkDiffusionEnergyEaw             = 1.0
WaterImbibitionCoefficientbetaw10  = 1.0
TemperatureDependentkappaT         = 1.0
HumidityDependentkappah            = 1.0
ASRParam15                         = 0.0
ASRParam16                         = 0.0
ASRParam17                         = 0.0
ASRParam18                         = 0.0
ASRParam19                         = 0.0
ASRParam20                         = 0.0
ASRParam21                         = 0.0
ASRParam22                         = 0.0
ASRParam23                         = 0.0
ASRParam24                         = 0.0
ASRParam25                         = 0.0
ASRParam26                         = 0.0
ASRParam27                         = 0.0
ASRParam28                         = 0.0
ASRParam29                         = 0.0
**
**
*******************************************************************************
**                             Other parameters                              **
**                              jprops ID: 1                                 **
*******************************************************************************
**
NumberOfUserElement                =23958
**
** PARTS
**
*Part, name=grasslDisk-fracture
*USER ELEMENT, NODES=4, TYPE=VU4, COORDINATES=3, variables=900, PROPERTIES=270, I PROPERTIES=1, INTEGRATION=3
1, 2, 3, 4, 5, 6
*Node
1, 0.0, 100.0, 725.0
2, 0.0, 100.0, 100.0
3, 0.0, 0.0, 725.0
4, 0.0, 0.0, 100.0
5, 39.938626258002, 100.0, 723.89909941415
6, 79.755960220708, 100.0, 720.59974105551
7, 119.33107795353, 100.0, 715.11194496697
8, 158.54379112462, 100.0, 707.45237740489
9, 197.27501201287, 100.0, 697.64430022421
10, 235.4071151734, 100.0, 685.71750023296
11, 272.82429466218, 100.0, 671.70819873073
12, 309.41291573489, 100.0, 655.65894150574
13, 345.06185995188, 100.0, 637.6184696247
14, 379.66286264121, 100.0, 617.64157140779
15, 413.11084169494, 100.0, 595.7889160383
16, 445.30421670001, 100.0, 572.12686931239
17, 476.14521743461, 100.0, 546.72729208825
18, 505.54018079315, 100.0, 519.66732204713
19, 533.39983523802, 100.0, 491.02913942866
20, 559.63957191433, 100.0, 460.89971745223
** ... 5347 like lines cut
*Element, type=VU4, elset=AllEls
1, 2011, 4140, 4499, 4601
2, 5211, 2069, 4457, 3708
3, 4682, 309, 5161, 3309
4, 2867, 3074, 2994, 3330
5, 1368, 4425, 4438, 4557
6, 745, 4803, 4861, 3418
7, 2069, 2791, 5211, 4975
8, 864, 4015, 4787, 3609
9, 1856, 2221, 2358, 4136
10, 2570, 1961, 2189, 3794
11, 4100, 4662, 3345, 4896
12, 5076, 926, 3900, 4778
13, 2248, 5229, 4567, 4047
14, 5088, 4878, 3456, 4245
15, 2539, 1628, 4640, 4750
16, 1486, 358, 3475, 4098
17, 5326, 4944, 3297, 4074
18, 1227, 622, 927, 4398
19, 950, 478, 3611, 5139
20, 1152, 497, 3937, 5132
** ... 23938 like lines cut
*Element, type=S3R
23959,  118, 3161, 3170
23960,  254, 3178, 3165
23961,  256,  255, 3156
23962,  128,  129, 3175
23963,  126,  127, 3166
23964, 3184,  130,  131
23965, 3183, 3164,  259
23966,  120,  121, 3157
23967, 3167,  132,    2
23968,  118,  119, 3161
23969,  126, 3177,  125
23970, 3151,  122,  123
23971, 3152,  253,  252
23972,  249, 3153, 3171
23973, 3182, 3153,  248
23974,  263, 3170, 3180
23975, 3152, 3178,  253
23976, 3155, 3147, 3156
23977, 3146, 3178, 3152
23978, 3176, 3154,  257
** ... 102 like lines cut
*UEL PROPERTY, ELSET=AllEls
<Density1>, <ElasticModulus1>, <Alpha1>, <TensileStrength1>, <TensileCharacteristicLength1>, <ShearStrengthRatio1>, <SofteningExponent1>, <CompressiveYieldingStrength1>,
<InitialHardeningModulusRatio1>, <TransitionalStrainRatio1>, <DeviatoricStrainThresholdRatio1>, <DeviatoricDamageParameter1>, <InitialFriction1>, <AsymptoticFriction1>, <TransitionalStress1>, <DensificationRatio1>,
<VolumetricDeviatoricCoupling1>, <TensileUnloading1>, <ShearUnloading1>, <CompressiveUnloading1>, <ShearSoftening1>, <FinalHardeningModulusRatio1>, <ElasticAnalysisFlag1>, <Density2>,
<ElasticModulus2>, <Alpha2>, <TensileStrength2>, <TensileCharacteristicLength2>, <ShearStrengthRatio2>, <SofteningExponent2>, <CompressiveYieldingStrength2>, <InitialHardeningModulusRatio2>,
<TransitionalStrainRatio2>, <DeviatoricStrainThresholdRatio2>, <DeviatoricDamageParameter2>,  <InitialFriction2>, <AsymptoticFriction2>, <TransitionalStress2>, <DensificationRatio2>, <VolumetricDeviatoricCoupling2>,
<TensileUnloading2>, <ShearUnloading2>, <CompressiveUnloading2>, <ShearSoftening2>, <FinalHardeningModulusRatio2>, <ElasticAnalysisFlag2>, <Density3>, <ElasticModulus3>,
<Alpha3>, <TensileStrength3>, <TensileCharacteristicLength3>, <ShearStrengthRatio3>, <SofteningExponent3>, <CompressiveYieldingStrength3>, <InitialHardeningModulusRatio3>, <TransitionalStrainRatio3>,
<DeviatoricStrainThresholdRatio3>, <DeviatoricDamageParameter3>, <InitialFriction3>, <AsymptoticFriction3>, <TransitionalStress3>, <DensificationRatio3>, <VolumetricDeviatoricCoupling3>, <TensileUnloading3>,
<ShearUnloading3>, <CompressiveUnloading3>, <ShearSoftening3>, <FinalHardeningModulusRatio3>, <ElasticAnalysisFlag3>, <TimeScalingFlag>, <TimeScalingFactor1>, <TimeScalingFactor2>,
<TimeScalingFactor3>, <TimeScalingFactor4>, <TimeScalingFactor5>, <TerminalTimeStep1>, <TerminalTimeStep2>, <TerminalTimeStep3>, <TerminalTimeStep4>, <TerminalTimeStep5>,
<ThermalStrainFlag>, <ThermalCoefficent>, <LITSPoisson>, <LITSCoefA>, <LITSCoefB>, <ShrinkageStrainFlag>, <ShrinkageCoefficent>, <ShrinkageParam2>,
<ShrinkageParam3>, <ShrinkageParam4>, <ImposedStressFlag>, <BiotCoefficient>, <PoroElasParam2>, <PoroElasParam3>, <PoroElasParam4>, <PoroElasParam5>,
<PoroElasParam6>, <PoroElasParam7>, <PoroElasParam8>, <PoroElasParam9>, <HTDegradationFlag>, <E0startT>, <E0meltT>, <E0nd>,
<ftstartT>, <ftmeltT>, <ftnd>, <fsstartT>, <fsmeltT>, <fsnd>, <fcstartT>, <fcmeltT>,
<fcnd>, <sf0startT>, <sf0meltT>, <sf0nd>, <HighTempParam16>, <HighTempParam17>, <HighTempParam18>, <HighTempParam19>,
<HighTempParam20>,<HighTempParam21>,<TemPorFlag>, <WatContent>, <CemContent>,<InitialWe0>, <HydrualicCond>, <TempOnHC>,
<HeatCapacity>,<ThermalCond>,<HydrationFlag>, <WatertoCementRatio>, <CementContent>, <HydrationReferenceTemperature>, <CementHydrationAc1>, <CementHydrationAc2>,
<CementHydrationEtac>, <CementHydrationEnergy>, <CementHydrationEnthalpy>, <InitialHydrationDegree>, <SilicaFumeContent>, <SFReactionReferenceTemperature>, <SilicaFumeReactionAs1>, <SilicaFumeReactionAs2>,
<SilicaFumeReactionEtac>, <SilicaFumeReactionEnergy>, <SilicaFumeReactionEnthalpy>, <InitialSFReactionDegree>, <SaturatedInfinityalphac>, <CementHydrationZeta>, <SaturatedInfinityalphas>, <SilicaFumeReactionZeta>,
<CementHydrationHumiditya>, <CementHydrationHumidityb>, <SilicaFumeEfficiency>, <HydrationParam25>, <HydrationParam26>, <HydrationParam27>, <HydrationParam28>, <HydrationParam29>,
<AgingFlag>, <AgeingAlpha0>, <AgeingALambda>, <AgeingReferenceTemperature>, <AgeingTemperatureExponent>, <InitialAgingDegree>, <RelativeInitialModulus>, <ModulusAgingCoefficient>,
<RelativeInitialStrengtht>,<StrengthtAgingCoefficient>, <RelativeInitialStrengthc0>, <Strengthc0AgingCoefficient>, <RelativeInitialStrengthN0>, <StrengthN0AgingCoefficient>, <RelativeInitialRst>, <RstAgingCoefficient>,
<LtAgingParameter>, <AgingParam17>, <AgingParam18>, <AgingParam19>, <AgingParam20>, <AgingParam21>, <AgingParam22>, <AgingParam23>,
<AgingParam24>, <AgingParam25>, <AgingParam26>, <AgingParam27>, <AgingParam28>, <AgingParam29>, <CreepModelFlag>, <MesoscaleInstantaneousComplianceq1>,
<ViscoelasticXi1>, <ViscoelasticN>, <PurelyViscousKappa0>, <PurelyViscousKappa1>, <PurelyViscousXi2>, <InitialRealTime>, <InitialMicroprestress>, <CreepTau0>,
<NKelvinChain>, <CreepA0>, <A0IntegrationTime>, <DeltaTau>, <CreepParam14>, <CreepParam15>, <CreepParam16>, <CreepParam17>,
<CreepParam18>, <CreepParam19>, <EvapWaterFlag>, <EvapWaterParam1>, <EvapWaterParam2>, <EvapWaterParam3>, <EvapWaterParam4>, <EvapWaterParam5>,
<EvapWaterParam6>, <EvapWaterParam7>, <EvapWaterParam8>, <EvapWaterParam9>, <EvapWaterParam10>, <EvapWaterParam11>, <EvapWaterParam12>, <EvapWaterParam13>,
<EvapWaterParam14>, <EvapWaterParam15>, <EvapWaterParam16>, <EvapWaterParam17>, <EvapWaterParam18>, <EvapWaterParam19>, <EvapWaterParam20>, <EvapWaterParam21>,
<EvapWaterParam22>, <EvapWaterParam23>, <EvapWaterParam24>, <EvapWaterParam25>, <EvapWaterParam26>, <EvapWaterParam27>, <EvapWaterParam28>, <EvapWaterParam29>,
<AlkaliSilicaReactionFlag>, <ASRReferenceTemperature>, <AlkaliDiffusionCoeffiecentCz10>, <AlkaliDiffusionRatioCz1OverCz0>, <AlkaliDiffusionExponentnZ>, <AlkaliDiffusionEnergyEag>, <AlkaliContentCoefficientkappaa>,<SilicaContentCs>,
<BulkDiffusionCoefficientCw10>, <BulkDiffusionRatioCw1OverCw0>, <BulkDiffusionExponentnw>, <BulkDiffusionEnergyEaw>, <WaterImbibitionCoefficientbetaw10>, <TemperatureDependentkappaT>, <HumidityDependentkappah>, <ASRParam15>,
<ASRParam16>, <ASRParam17>, <ASRParam18>, <ASRParam19>, <ASRParam20>, <ASRParam21>, <ASRParam22>, <ASRParam23>,
<ASRParam24>, <ASRParam25>, <ASRParam26>, <ASRParam27>, <ASRParam28>, <ASRParam29>, <NumberOfUserElement>
*Elset, elset=InnerSkin, internal, generate
 23959,  24080,      1
*Surface, type=ELEMENT, name=APPLYPRESSURE
InnerSkin, SPOS
** Section: Section-1-InnerSkin
*Shell Section, elset=InnerSkin,material=Skin,offset=SNEG
5, 5
*End Part
**
**
** ASSEMBLY
**
*Assembly, name=Assembly
**
*Instance, name=grasslDisk-fracture-1, part=grasslDisk-fracture
*End Instance
**
*Nset, nset=AllLDPMnodes, instance=grasslDisk-fracture-1, generate
1, 5367, 1
*NSET, NSET=InnerNodes_LDPM, instance=grasslDisk-fracture-1
2,4,121,123,124,125,126,127,128,129,249,251,252,253,254,
255,256,257,263,264,3142,3143,3144,3145,3147,3149,3153,3155,3157,3158,
3162,3163,3165,3169,3170,3171,3172,3173,3174,3175,3176,3178,3179,3181,3182,
3183,3184,
*NSET, NSET=OuterNodes_LDPM, instance=grasslDisk-fracture-1
1,3,9,10,14,16,17,18,20,21,23,24,25,30,31,
32,33,34,35,40,41,42,44,45,47,48,49,51,52,56,
61,66,67,71,74,75,77,78,80,81,82,87,88,89,90,
91,92,97,98,99,101,102,104,105,106,108,112,113,137,138,
142,144,145,146,148,149,151,152,153,158,159,160,161,162,163,
168,169,170,172,173,175,176,177,179,180,184,189,194,195,199,
202,203,205,206,208,209,210,215,216,217,218,219,220,225,226,
227,229,230,232,233,234,236,240,241,261,262,2849,2850,2851,2852,
2854,2856,2859,2860,2862,2865,2870,2872,2874,2884,2885,2890,2891,2892,2893,
2894,2895,2896,2897,2898,2900,2903,2904,2908,2909,2910,2912,2915,2916,2919,
2920,2924,2925,2926,2927,2929,2932,2935,2937,2938,2939,2941,2942,2944,2945,
2947,2949,2950,2951,2952,2955,2956,2957,2958,2960,2962,2963,2964,2968,2969,
2971,2975,2977,2978,2979,2982,2985,2988,2990,2992,2993,2996,2997,2998,2999,
3000,3002,3005,3007,3009,3013,3016,3017,3018,3020,3021,3023,3025,3031,3033,
3035,3036,3037,3038,3039,3040,3041,3043,3044,3045,3047,3053,3054,3056,3059,
3062,3063,3064,3067,3069,3072,3076,3077,3080,3081,3084,3086,3087,3088,3091,
3092,3096,3098,3099,3103,3104,3105,3107,3108,3110,3111,3112,3113,3114,3115,
3116,3117,3118,3119,3120,3121,3123,3125,3127,3129,3130,3134,3135,3136,3139,
*NSET, NSET=TopNodes_LDPM, instance=grasslDisk-fracture-1
1,2,5,6,7,8,9,10,11,12,13,14,15,16,17,
18,19,20,21,22,23,24,25,26,27,28,29,30,31,32,
33,34,35,36,37,38,39,40,41,42,43,44,45,46,47,
48,49,50,51,52,53,54,55,56,57,58,59,60,61,62,
63,64,65,66,67,68,69,70,71,72,73,74,75,76,77,
78,79,80,81,82,83,84,85,86,87,88,89,90,91,92,
93,94,95,96,97,98,99,100,101,102,103,104,105,106,107,
108,109,110,111,112,113,114,115,116,117,118,119,120,121,122,
123,124,125,126,127,128,129,130,131,132,265,266,267,268,269,
270,271,272,273,274,275,276,277,278,279,280,281,282,283,284,
285,286,287,288,289,290,291,292,293,294,295,296,297,298,299,
300,301,302,303,304,305,306,307,308,309,310,311,312,313,314,
315,316,317,318,319,320,321,322,323,324,325,326,327,328,329,
330,331,332,333,334,335,336,337,338,339,340,341,342,343,344,
345,346,347,348,349,350,351,352,353,354,355,356,357,358,359,
360,361,362,363,364,365,366,367,368,369,370,371,372,373,374,
375,376,377,378,379,380,381,382,383,384,385,386,387,388,389,
390,391,392,393,394,395,396,397,398,399,400,401,402,403,404,
405,406,407,408,409,410,411,412,413,414,415,416,417,418,419,
420,421,422,423,424,425,426,427,428,429,430,431,432,433,434,
** ... 75 like lines cut
*NSET, NSET=BottomNodes_LDPM, instance=grasslDisk-fracture-1
3,4,133,134,135,136,137,138,139,140,141,142,143,144,145,
146,147,148,149,150,151,152,153,154,155,156,157,158,159,160,
161,162,163,164,165,166,167,168,169,170,171,172,173,174,175,
176,177,178,179,180,181,182,183,184,185,186,187,188,189,190,
191,192,193,194,195,196,197,198,199,200,201,202,203,204,205,
206,207,208,209,210,211,212,213,214,215,216,217,218,219,220,
221,222,223,224,225,226,227,228,229,230,231,232,233,234,235,
236,237,238,239,240,241,242,243,244,245,246,247,248,249,250,
251,252,253,254,255,256,257,258,259,260,1557,1558,1559,1560,1561,
1562,1563,1564,1565,1566,1567,1568,1569,1570,1571,1572,1573,1574,1575,1576,
1577,1578,1579,1580,1581,1582,1583,1584,1585,1586,1587,1588,1589,1590,1591,
1592,1593,1594,1595,1596,1597,1598,1599,1600,1601,1602,1603,1604,1605,1606,
1607,1608,1609,1610,1611,1612,1613,1614,1615,1616,1617,1618,1619,1620,1621,
1622,1623,1624,1625,1626,1627,1628,1629,1630,1631,1632,1633,1634,1635,1636,
1637,1638,1639,1640,1641,1642,1643,1644,1645,1646,1647,1648,1649,1650,1651,
1652,1653,1654,1655,1656,1657,1658,1659,1660,1661,1662,1663,1664,1665,1666,
1667,1668,1669,1670,1671,1672,1673,1674,1675,1676,1677,1678,1679,1680,1681,
1682,1683,1684,1685,1686,1687,1688,1689,1690,1691,1692,1693,1694,1695,1696,
1697,1698,1699,1700,1701,1702,1703,1704,1705,1706,1707,1708,1709,1710,1711,
1712,1713,1714,1715,1716,1717,1718,1719,1720,1721,1722,1723,1724,1725,1726,
** ... 75 like lines cut
*NSET,NSET=MonitoringNodes-1_LDPM, instance=grasslDisk-fracture-1
738,872,873,1294,1295,1353,1354,1366,2030,2164,2165,2586,2587,2645,2646,
2658,3328,3415,3656,3661,3668,3825,3864,4087,4118,4183,4359,4433,4439,4442,
4510,4669,4731,4896,4945,4957,5033,5115,5120,5177,5182,5297,5301,
*NSET,NSET=MonitoringNodes-2_LDPM, instance=grasslDisk-fracture-1
520,524,628,629,904,978,1194,1380,1812,1816,1920,1921,2196,2270,2486,
2672,3353,3650,3707,3741,3811,3861,3987,4046,4100,4192,4230,4365,4402,4624,
4749,4772,4773,4841,4879,4897,5023,5154,5158,5224,
*NSET,NSET=MonitoringNodes-3_LDPM, instance=grasslDisk-fracture-1
376,377,378,433,434,436,437,440,442,915,944,972,974,998,1020,
1021,1084,1085,1668,1669,1670,1725,1726,1728,1729,1732,1734,2207,2236,2264,
2266,2290,2312,2313,2376,2377,3274,3284,3302,3345,3419,3462,3507,3552,3612,
3641,3682,3795,3833,4071,4094,4293,4344,4474,4493,4568,4746,4759,4867,4869,
5039,5095,5354,
*NSET,NSET=MonitoringNodes-4_LDPM, instance=grasslDisk-fracture-1
338,339,340,341,770,773,780,781,803,863,922,924,1391,1392,1630,
1631,1632,1633,2062,2065,2072,2073,2095,2155,2214,2216,2683,2684,3188,3247,
3351,3362,3484,3542,3601,3608,3615,3782,3804,3978,4026,4235,4389,4399,4421,
4452,4551,4553,4577,4673,4686,4935,4936,4973,4994,5138,5192,5329,5345,
*NSET,NSET=MonitoringNodes-5_LDPM, instance=grasslDisk-fracture-1
385,387,636,637,677,678,698,776,777,797,798,834,835,836,878,
1088,1089,1128,1259,1335,1441,1442,1545,1547,1677,1679,1928,1929,1969,1970,
1990,2068,2069,2089,2090,2126,2127,2128,2170,2380,2381,2420,2551,2627,2733,
2734,2837,2839,3190,3196,3199,3259,3278,3310,3314,3329,3335,3461,3488,3566,
3594,3708,3731,3817,3841,4167,4172,4185,4189,4210,4248,4259,4302,4351,4417,
4432,4457,4490,4520,4616,4709,4722,4745,4901,4927,4952,5004,5059,5088,5104,
5117,5145,5180,5270,
*NSET,NSET=MonitoringNodes-6_LDPM, instance=grasslDisk-fracture-1
304,305,310,311,312,313,314,547,548,751,753,821,959,960,1060,
1061,1090,1376,1377,1396,1397,1407,1470,1471,1472,1534,1596,1597,1602,1603,
1604,1605,1606,1839,1840,2043,2045,2113,2251,2252,2352,2353,2382,2668,2669,
2688,2689,2699,2762,2763,2764,2826,3232,3248,3255,3293,3320,3385,3623,3636,
3715,3732,3745,3771,3787,3806,3822,3879,3901,3915,3929,3944,4010,4038,4045,
4099,4115,4159,4164,4238,4322,4409,4448,4497,4633,4657,4675,4683,4702,4734,
4774,4787,4801,4827,4830,4876,4961,5021,5031,5040,5090,5150,5153,5160,5175,
5202,5268,5321,
*NSET,NSET=MonitoringNodes-7_LDPM, instance=grasslDisk-fracture-1
348,349,350,352,373,390,391,596,654,655,658,712,728,730,819,
823,850,851,865,866,871,882,883,939,949,1240,1241,1332,1360,1413,
1420,1444,1473,1484,1505,1510,1511,1518,1544,1640,1641,1642,1644,1665,1682,
1683,1888,1946,1947,1950,2004,2020,2022,2111,2115,2142,2143,2157,2158,2163,
2174,2175,2231,2241,2532,2533,2624,2652,2705,2712,2736,2765,2776,2797,2802,
2803,2810,2836,3267,3297,3327,3402,3431,3459,3537,3555,3627,3692,3737,3843,
3874,3884,3971,4041,4052,4146,4179,4214,4252,4280,4283,4325,4343,4367,4376,
4391,4411,4418,4438,4446,4576,4594,4595,4606,4610,4611,4614,4637,4638,4747,
4781,4783,4789,4798,4819,4916,4966,5034,5109,5110,5125,5227,5232,5234,5266,
5269,5334,5338,
*NSET,NSET=MonitoringNodes-8_LDPM, instance=grasslDisk-fracture-1
308,309,322,323,573,574,575,578,582,621,622,623,646,647,670,
676,682,683,684,699,701,705,706,716,717,718,719,879,880,885,
927,928,935,1040,1044,1045,1046,1190,1210,1226,1331,1341,1342,1425,1453,
1463,1464,1502,1600,1601,1614,1615,1865,1866,1867,1870,1874,1913,1914,1915,
1938,1939,1962,1968,1974,1975,1976,1991,1993,1997,1998,2008,2009,2010,2011,
2171,2172,2177,2219,2220,2227,2332,2336,2337,2338,2482,2502,2518,2623,2633,
2634,2717,2745,2755,2756,2794,3187,3203,3216,3287,3296,3337,3343,3352,3422,
3446,3468,3469,3505,3539,3556,3584,3625,3634,3646,3676,3686,3688,3719,3736,
3747,3770,3776,3802,3852,3869,3926,3941,3995,4044,4054,4066,4109,4121,4140,
4145,4201,4208,4234,4267,4285,4301,4453,4479,4480,4524,4542,4578,4579,4581,
4601,4626,4627,4682,4692,4733,4739,4760,4790,4800,4838,4843,4860,4866,4971,
4979,4980,4984,4993,5025,5032,5036,5050,5052,5074,5102,5161,5226,5261,5286,
5348,
*Surface, type=NODE, name=grasslDisk_inner_CNS_, internal
InnerNodes_LDPM
*End Assembly
*Amplitude, name=Amp-1, time=TOTAL TIME
0., 0., 1.0e-2, 1., 5.0e-2, 1.
**
** MATERIALS
**
*Material, name=Skin
*Density
<Density1>,
*Elastic
37185.02, 0.1
** 
** BOUNDARY CONDITIONS
** 
** Name: BC-Fixed Type: Displacement/Rotation
**Boundary
TopNodes_LDPM, 2, 2
TopNodes_LDPM, 4, 6
BottomNodes_LDPM, 2, 2
BottomNodes_LDPM, 4, 6
** ----------------------------------------------------------------
**
** STEP: Step-1
**
*Step, name=Step-1, nlgeom=NO
*Dynamic, Explicit, DIRECT USER CONTROL
5.0e-7, 5.0e-2
*Bulk Viscosity
0.06, 1.2
**
** LOADS
**
** Name: SURFFORCE-1   Type: Pressure
*Dsload, amplitude=Amp-1
grasslDisk-fracture-1.APPLYPRESSURE, P, 20.
**
** OUTPUT REQUESTS
**
** FIELD OUTPUT: F-Output-1
**
*Output, Field, Var=Preselect, Number interval=100
*Node Output, Nset=AllLDPMNodes
U, V, A, RF
*End Step
